<?xml version="1.0" encoding="UTF-8"?>

<!-- generated on Sex  1 Fev 15:20:41 2019 by Netedit Version 0.25.0
<?xml version="1.0" encoding="UTF-8"?>

<configuration xmlns:xsi="http://www.w3.org/2001/XMLSchema-instance" xsi:noNamespaceSchemaLocation="http://sumo.dlr.de/xsd/netedit.exeConfiguration.xsd">

    <input>
        <sumo-net-file value="/Users/AllanMSouza/Dropbox/PhD/TMS%20Implementation/TITS_SI/codes/Proposal/scenario/Chicago/sim.net.xml"/>
    </input>

    <output>
        <output-file value="/Users/AllanMSouza/Dropbox/PhD/TMS%20Implementation/TITS_SI/codes/Proposal/scenario/Chicago/sim.net.xml"/>
        <plain-output-prefix value="/Users/AllanMSouza/Dropbox/PhD/TMS%20Implementation/TITS_SI/codes/Proposal/scenario/Chicago/sim"/>
    </output>

    <processing>
        <no-turnarounds value="true"/>
        <offset.disable-normalization value="true"/>
        <lefthand value="false"/>
        <junctions.corner-detail value="0"/>
    </processing>

</configuration>
-->

<connections version="0.25" xmlns:xsi="http://www.w3.org/2001/XMLSchema-instance" xsi:noNamespaceSchemaLocation="http://sumo.dlr.de/xsd/connections_file.xsd">
    <connection from="-106783558" to="-435717655#0" fromLane="0" toLane="1"/>
    <connection from="-106783558" to="435656630#1" fromLane="1" toLane="2"/>
    <connection from="-106783558" to="106783558" fromLane="1" toLane="1"/>

    <connection from="-116025901#0" to="435324920" fromLane="0" toLane="0"/>
    <connection from="-116025901#0" to="117576016#1" fromLane="1" toLane="1"/>

    <connection from="-116025901#3" to="-116025901#0" fromLane="0" toLane="0"/>
    <connection from="-116025901#3" to="-116025901#0" fromLane="1" toLane="1"/>
    <connection from="-116025901#3" to="253737719" fromLane="1" toLane="1"/>

    <connection from="-116025901#6" to="441514502" fromLane="0" toLane="0"/>
    <connection from="-116025901#6" to="-116025901#3" fromLane="0" toLane="0"/>
    <connection from="-116025901#6" to="-116025901#3" fromLane="1" toLane="1"/>

    <connection from="-116025906" to="-433780234" fromLane="0" toLane="0"/>
    <connection from="-116025906" to="-116025901#6" fromLane="1" toLane="1"/>

    <connection from="-117576369" to="117575266#1" fromLane="0" toLane="0"/>
    <connection from="-117576369" to="-202375198" fromLane="0" toLane="0"/>

    <connection from="-134319745#0" to="-435724021" fromLane="0" toLane="0"/>
    <connection from="-134319745#0" to="-435724021" fromLane="1" toLane="1"/>
    <connection from="-134319745#0" to="59678310#0" fromLane="1" toLane="1"/>

    <connection from="-143925554" to="-33262455#1" fromLane="0" toLane="0"/>
    <connection from="-143925554" to="-33262455#1" fromLane="1" toLane="1"/>
    <connection from="-143925554" to="435549677" fromLane="1" toLane="1"/>
    <connection from="-143925554" to="143925554" fromLane="1" toLane="1"/>

    <connection from="-143930066" to="27804884" fromLane="0" toLane="0"/>
    <connection from="-143930066" to="-435654253" fromLane="0" toLane="0"/>
    <connection from="-143930066" to="-435654253" fromLane="1" toLane="1"/>
    <connection from="-143930066" to="143930066" fromLane="1" toLane="1"/>

    <connection from="-145826633" to="435536391#0" fromLane="0" toLane="0"/>
    <connection from="-145826633" to="435536391#0" fromLane="1" toLane="1"/>
    <connection from="-145826633" to="435536391#0" fromLane="1" toLane="2"/>

    <connection from="-145834816#1" to="-435654242" fromLane="0" toLane="1"/>
    <connection from="-145834816#1" to="641710652#1" fromLane="1" toLane="1"/>
    <connection from="-145834816#1" to="145834816#1" fromLane="1" toLane="1"/>

    <connection from="-146010267" to="488118931" fromLane="0" toLane="0"/>
    <connection from="-146010267" to="-56242433#4" fromLane="0" toLane="0"/>
    <connection from="-146010267" to="-56242433#4" fromLane="1" toLane="1"/>
    <connection from="-146010267" to="-435331447#0" fromLane="1" toLane="1"/>

    <connection from="-163148287" to="-116025906" fromLane="0" toLane="1"/>
    <connection from="-163148287" to="163148369#1" fromLane="1" toLane="1"/>
    <connection from="-163148287" to="163148287" fromLane="1" toLane="1"/>

    <connection from="-185742600" to="435397327" fromLane="0" toLane="0"/>
    <connection from="-185742600" to="435397327" fromLane="1" toLane="1"/>
    <connection from="-185742600" to="-435397293" fromLane="1" toLane="0"/>
    <connection from="-185742600" to="185742600" fromLane="1" toLane="1"/>

    <connection from="-202375198" to="435381813" fromLane="0" toLane="1"/>
    <connection from="-202375198" to="435324906#1" fromLane="1" toLane="1"/>
    <connection from="-202375198" to="202375198" fromLane="1" toLane="1"/>

    <connection from="-221317663" to="-435393464" fromLane="0" toLane="0"/>
    <connection from="-221317663" to="-435831063" fromLane="1" toLane="1"/>
    <connection from="-221317663" to="-315048942" fromLane="1" toLane="1"/>

    <connection from="-223510912#0" to="-5120694#1" fromLane="0" toLane="0"/>
    <connection from="-223510912#0" to="56460701" fromLane="0" toLane="0"/>
    <connection from="-223510912#0" to="-143925554" fromLane="0" toLane="0"/>
    <connection from="-223510912#0" to="-143925554" fromLane="1" toLane="1"/>
    <connection from="-223510912#0" to="26231830" fromLane="1" toLane="1"/>
    <connection from="-223510912#0" to="-435659096" fromLane="1" toLane="1"/>
    <connection from="-223510912#0" to="223510912#0" fromLane="1" toLane="1"/>

    <connection from="-223510912#1" to="-223510912#0" fromLane="0" toLane="1"/>
    <connection from="-223510912#1" to="56629673#0" fromLane="1" toLane="1"/>
    <connection from="-223510912#1" to="223510912#1" fromLane="1" toLane="1"/>

    <connection from="-223510912#2" to="56464429" fromLane="0" toLane="0"/>
    <connection from="-223510912#2" to="56464429" fromLane="1" toLane="1"/>
    <connection from="-223510912#2" to="-223510912#1" fromLane="1" toLane="0"/>

    <connection from="-229737913" to="617086267" fromLane="0" toLane="0"/>
    <connection from="-229737913" to="617086267" fromLane="1" toLane="1"/>
    <connection from="-229737913" to="-488356387" fromLane="1" toLane="0"/>
    <connection from="-229737913" to="229737913" fromLane="1" toLane="1"/>

    <connection from="-230492795#1" to="-23888140" fromLane="0" toLane="0"/>
    <connection from="-230492795#1" to="-231237737#1" fromLane="0" toLane="0"/>
    <connection from="-230492795#1" to="-231237737#1" fromLane="1" toLane="1"/>
    <connection from="-230492795#1" to="-231237737#1" fromLane="2" toLane="2"/>
    <connection from="-230492795#1" to="230492795#1" fromLane="2" toLane="2"/>

    <connection from="-231237737#1" to="313874093" fromLane="0" toLane="0"/>
    <connection from="-231237737#1" to="-435559501" fromLane="0" toLane="0"/>
    <connection from="-231237737#1" to="-435559501" fromLane="1" toLane="1"/>
    <connection from="-231237737#1" to="-435559501" fromLane="2" toLane="2"/>
    <connection from="-231237737#1" to="231237737#1" fromLane="2" toLane="2"/>

    <connection from="-231305591" to="435547811" fromLane="0" toLane="0"/>
    <connection from="-231305591" to="23188286" fromLane="0" toLane="0"/>
    <connection from="-231305591" to="23188286" fromLane="1" toLane="1"/>
    <connection from="-231305591" to="-541415552" fromLane="1" toLane="0"/>
    <connection from="-231305591" to="231305591" fromLane="1" toLane="1"/>

    <connection from="-231305597#1" to="435393414" fromLane="0" toLane="0"/>
    <connection from="-231305597#1" to="435393454" fromLane="0" toLane="0"/>
    <connection from="-231305597#1" to="435393454" fromLane="1" toLane="1"/>
    <connection from="-231305597#1" to="231305597#1" fromLane="1" toLane="1"/>

    <connection from="-231307557" to="-318749976" fromLane="0" toLane="1"/>
    <connection from="-231307557" to="435543543" fromLane="1" toLane="0"/>
    <connection from="-231307557" to="435543543" fromLane="2" toLane="1"/>

    <connection from="-231365447" to="435332793" fromLane="0" toLane="0"/>
    <connection from="-231365447" to="435332793" fromLane="1" toLane="1"/>
    <connection from="-231365447" to="-435654252" fromLane="1" toLane="0"/>
    <connection from="-231365447" to="231365447" fromLane="1" toLane="1"/>

    <connection from="-231603332" to="-400090624" fromLane="0" toLane="0"/>
    <connection from="-231603332" to="-401896408" fromLane="0" toLane="0"/>
    <connection from="-231603332" to="-621257000#1" fromLane="1" toLane="1"/>
    <connection from="-231603332" to="435545081" fromLane="1" toLane="1"/>
    <connection from="-231603332" to="253740823" fromLane="1" toLane="1"/>
    <connection from="-231603332" to="231603332" fromLane="1" toLane="1"/>

    <connection from="-231617187" to="-201255105" fromLane="0" toLane="1"/>
    <connection from="-231617187" to="623940526" fromLane="1" toLane="1"/>
    <connection from="-231617187" to="231617187" fromLane="1" toLane="2"/>

    <connection from="-23188286" to="-541415552" fromLane="0" toLane="0"/>
    <connection from="-23188286" to="231305591" fromLane="0" toLane="0"/>
    <connection from="-23188286" to="231305591" fromLane="1" toLane="1"/>
    <connection from="-23188286" to="435547811" fromLane="1" toLane="0"/>

    <connection from="-23646718#1" to="-433777237" fromLane="0" toLane="0"/>
    <connection from="-23646718#1" to="-433777237" fromLane="1" toLane="1"/>
    <connection from="-23646718#1" to="24102123#2" fromLane="1" toLane="1"/>
    <connection from="-23646718#1" to="23646718#1" fromLane="1" toLane="1"/>

    <connection from="-23745828" to="23810097" fromLane="0" toLane="0"/>
    <connection from="-23745828" to="23810097" fromLane="1" toLane="1"/>
    <connection from="-23745828" to="23745828" fromLane="1" toLane="1"/>

    <connection from="-23761413" to="56150140" fromLane="0" toLane="0"/>
    <connection from="-23761413" to="56150140" fromLane="1" toLane="1"/>
    <connection from="-23761413" to="435381804" fromLane="1" toLane="0"/>

    <connection from="-23761426" to="-435562603" fromLane="0" toLane="0"/>
    <connection from="-23761426" to="-23761413" fromLane="0" toLane="0"/>
    <connection from="-23761426" to="-23761413" fromLane="1" toLane="1"/>
    <connection from="-23761426" to="435654253" fromLane="1" toLane="0"/>

    <connection from="-23887717" to="-620293814#0" fromLane="0" toLane="0"/>
    <connection from="-23887717" to="-620293814#0" fromLane="1" toLane="1"/>
    <connection from="-23887717" to="433783096" fromLane="1" toLane="1"/>

    <connection from="-23888140" to="163148296#1" fromLane="0" toLane="0"/>
    <connection from="-23888140" to="163148296#1" fromLane="1" toLane="1"/>
    <connection from="-23888140" to="23888140" fromLane="1" toLane="0"/>

    <connection from="-24071819" to="249994971" fromLane="0" toLane="0"/>
    <connection from="-24071819" to="-435724063" fromLane="1" toLane="1"/>
    <connection from="-24071819" to="-435724063" fromLane="1" toLane="2"/>

    <connection from="-24073925" to="633300069#0" fromLane="0" toLane="0"/>
    <connection from="-24073925" to="24105976" fromLane="0" toLane="0"/>
    <connection from="-24073925" to="24105976" fromLane="1" toLane="1"/>
    <connection from="-24073925" to="432375796#0" fromLane="1" toLane="2"/>
    <connection from="-24073925" to="24073925" fromLane="1" toLane="1"/>

    <connection from="-24088872#0" to="624084639#1" fromLane="0" toLane="0"/>
    <connection from="-24088872#0" to="641710651#0" fromLane="0" toLane="0"/>
    <connection from="-24088872#0" to="435329582" fromLane="1" toLane="2"/>
    <connection from="-24088872#0" to="24088872#0" fromLane="1" toLane="1"/>

    <connection from="-24105976" to="432375796#0" fromLane="0" toLane="0"/>
    <connection from="-24105976" to="24073925" fromLane="0" toLane="0"/>
    <connection from="-24105976" to="24073925" fromLane="1" toLane="1"/>
    <connection from="-24105976" to="633300069#0" fromLane="1" toLane="1"/>
    <connection from="-24105976" to="24105976" fromLane="1" toLane="1"/>

    <connection from="-24203326#0" to="-47304033" fromLane="0" toLane="0"/>
    <connection from="-24203326#0" to="-435549676" fromLane="1" toLane="1"/>
    <connection from="-24203326#0" to="-316762108#0" fromLane="1" toLane="1"/>
    <connection from="-24203326#0" to="24203326#0" fromLane="1" toLane="1"/>

    <connection from="-24203446" to="294565005#4" fromLane="0" toLane="0"/>
    <connection from="-24203446" to="-294565005#3" fromLane="1" toLane="1"/>
    <connection from="-24203446" to="24203446" fromLane="1" toLane="1"/>

    <connection from="-24215244#0" to="-253737737" fromLane="0" toLane="0"/>
    <connection from="-24215244#0" to="-435562592" fromLane="0" toLane="0"/>
    <connection from="-24215244#0" to="-435562592" fromLane="1" toLane="1"/>
    <connection from="-24215244#0" to="435562603" fromLane="1" toLane="1"/>
    <connection from="-24215244#0" to="24215244#0" fromLane="1" toLane="1"/>

    <connection from="-24215244#1" to="-435342290" fromLane="0" toLane="0"/>
    <connection from="-24215244#1" to="-24215244#0" fromLane="0" toLane="0"/>
    <connection from="-24215244#1" to="-24215244#0" fromLane="1" toLane="1"/>
    <connection from="-24215244#1" to="435562589" fromLane="1" toLane="0"/>
    <connection from="-24215244#1" to="24215244#1" fromLane="1" toLane="1"/>

    <connection from="-24229909" to="435657947" fromLane="0" toLane="0"/>
    <connection from="-24229909" to="435657947" fromLane="1" toLane="1"/>
    <connection from="-24229909" to="59196050#1" fromLane="1" toLane="1"/>
    <connection from="-24229909" to="24229909" fromLane="1" toLane="1"/>

    <connection from="-24231504" to="-435397327" fromLane="0" toLane="0"/>
    <connection from="-24231504" to="488118937" fromLane="1" toLane="1"/>
    <connection from="-24231504" to="24372007" fromLane="1" toLane="1"/>

    <connection from="-24372007" to="24231504" fromLane="0" toLane="0"/>
    <connection from="-24372007" to="-435397327" fromLane="0" toLane="0"/>
    <connection from="-24372007" to="-435397327" fromLane="1" toLane="1"/>
    <connection from="-24372007" to="488118937" fromLane="1" toLane="1"/>

    <connection from="-244501317" to="435393464" fromLane="0" toLane="0"/>
    <connection from="-244501317" to="-435832375" fromLane="1" toLane="1"/>
    <connection from="-244501317" to="-435397365" fromLane="1" toLane="1"/>

    <connection from="-244501322" to="-23989688" fromLane="0" toLane="0"/>
    <connection from="-244501322" to="-435840160" fromLane="1" toLane="0"/>
    <connection from="-244501322" to="435350923" fromLane="1" toLane="1"/>
    <connection from="-244501322" to="244501322" fromLane="1" toLane="0"/>

    <connection from="-24952069" to="-294565004" fromLane="0" toLane="0"/>
    <connection from="-24952069" to="-294565004" fromLane="1" toLane="1"/>
    <connection from="-24952069" to="24952069" fromLane="1" toLane="1"/>

    <connection from="-24952123" to="-319510094#0" fromLane="0" toLane="0"/>
    <connection from="-24952123" to="-255412271#1" fromLane="0" toLane="1"/>
    <connection from="-24952123" to="24952123" fromLane="0" toLane="1"/>

    <connection from="-253737737" to="435562602" fromLane="0" toLane="0"/>
    <connection from="-253737737" to="435562602" fromLane="1" toLane="1"/>
    <connection from="-253737737" to="-5015170#2" fromLane="1" toLane="0"/>
    <connection from="-253737737" to="253737737" fromLane="1" toLane="1"/>

    <connection from="-253740823" to="231603332" fromLane="0" toLane="0"/>
    <connection from="-253740823" to="-400090624" fromLane="0" toLane="0"/>
    <connection from="-253740823" to="-401896408" fromLane="0" toLane="0"/>
    <connection from="-253740823" to="-401896408" fromLane="1" toLane="1"/>
    <connection from="-253740823" to="-621257000#1" fromLane="1" toLane="1"/>
    <connection from="-253740823" to="435545081" fromLane="1" toLane="1"/>

    <connection from="-255412271#1" to="-435717648" fromLane="0" toLane="0"/>
    <connection from="-255412271#1" to="-435717648" fromLane="1" toLane="1"/>
    <connection from="-255412271#1" to="-435717656#1" fromLane="1" toLane="0"/>

    <connection from="-255563525" to="-48785113" fromLane="0" toLane="0"/>
    <connection from="-255563525" to="-48785113" fromLane="1" toLane="1"/>
    <connection from="-255563525" to="320480949" fromLane="2" toLane="1"/>

    <connection from="-26231830" to="-435659096" fromLane="0" toLane="0"/>
    <connection from="-26231830" to="223510912#0" fromLane="0" toLane="0"/>
    <connection from="-26231830" to="-5120694#1" fromLane="1" toLane="1"/>
    <connection from="-26231830" to="56460701" fromLane="1" toLane="0"/>
    <connection from="-26231830" to="-143925554" fromLane="1" toLane="1"/>
    <connection from="-26231830" to="26231830" fromLane="1" toLane="1"/>

    <connection from="-27804884" to="-435654253" fromLane="0" toLane="0"/>
    <connection from="-27804884" to="-435654253" fromLane="1" toLane="1"/>
    <connection from="-27804884" to="143930066" fromLane="1" toLane="1"/>
    <connection from="-27804884" to="27804884" fromLane="1" toLane="1"/>

    <connection from="-285960969" to="-435657963" fromLane="0" toLane="0"/>
    <connection from="-285960969" to="-435657963" fromLane="1" toLane="1"/>

    <connection from="-288594593" to="435832375" fromLane="0" toLane="0"/>
    <connection from="-288594593" to="-488118937" fromLane="0" toLane="0"/>
    <connection from="-288594593" to="-488118937" fromLane="1" toLane="1"/>
    <connection from="-288594593" to="-435397259" fromLane="1" toLane="0"/>
    <connection from="-288594593" to="-435397259" fromLane="2" toLane="1"/>
    <connection from="-288594593" to="435397257" fromLane="2" toLane="1"/>
    <connection from="-288594593" to="-185742600" fromLane="2" toLane="1"/>
    <connection from="-288594593" to="288594593" fromLane="2" toLane="1"/>

    <connection from="-293871266" to="220528679#0" fromLane="0" toLane="0"/>
    <connection from="-293871266" to="313471979" fromLane="0" toLane="0"/>
    <connection from="-293871266" to="313471979" fromLane="1" toLane="1"/>
    <connection from="-293871266" to="-435397246" fromLane="1" toLane="0"/>
    <connection from="-293871266" to="293871266" fromLane="1" toLane="1"/>

    <connection from="-294565004" to="294565007" fromLane="0" toLane="0"/>
    <connection from="-294565004" to="294565007" fromLane="1" toLane="1"/>
    <connection from="-294565004" to="294565004" fromLane="1" toLane="1"/>

    <connection from="-294565005#1" to="-24952069" fromLane="0" toLane="0"/>
    <connection from="-294565005#1" to="-24952069" fromLane="1" toLane="1"/>
    <connection from="-294565005#1" to="294565005#1" fromLane="1" toLane="1"/>

    <connection from="-294565005#2" to="-294565005#1" fromLane="0" toLane="0"/>
    <connection from="-294565005#2" to="-294565005#1" fromLane="1" toLane="1"/>
    <connection from="-294565005#2" to="294565005#2" fromLane="1" toLane="1"/>

    <connection from="-294565005#3" to="-294565005#2" fromLane="0" toLane="0"/>
    <connection from="-294565005#3" to="-294565005#2" fromLane="1" toLane="1"/>
    <connection from="-294565005#3" to="294565005#3" fromLane="1" toLane="1"/>

    <connection from="-294565005#4" to="-294565005#3" fromLane="0" toLane="0"/>
    <connection from="-294565005#4" to="-294565005#3" fromLane="1" toLane="1"/>
    <connection from="-294565005#4" to="24203446" fromLane="1" toLane="1"/>
    <connection from="-294565005#4" to="294565005#4" fromLane="1" toLane="1"/>

    <connection from="-294712584" to="433784887" fromLane="0" toLane="0"/>
    <connection from="-294712584" to="-433784890" fromLane="1" toLane="0"/>

    <connection from="-294737982" to="-143930066" fromLane="0" toLane="0"/>
    <connection from="-294737982" to="-143930066" fromLane="1" toLane="1"/>
    <connection from="-294737982" to="294737982" fromLane="1" toLane="1"/>

    <connection from="-31232996" to="641710630#0" fromLane="0" toLane="0"/>
    <connection from="-31232996" to="641710630#0" fromLane="1" toLane="1"/>
    <connection from="-31232996" to="-641710631" fromLane="1" toLane="0"/>

    <connection from="-312901458" to="-294712584" fromLane="0" toLane="0"/>
    <connection from="-312901458" to="-294712584" fromLane="1" toLane="1"/>
    <connection from="-312901458" to="316762110" fromLane="1" toLane="1"/>
    <connection from="-312901458" to="312901458" fromLane="1" toLane="0"/>

    <connection from="-313471979" to="-435397246" fromLane="0" toLane="0"/>
    <connection from="-313471979" to="293871266" fromLane="0" toLane="0"/>
    <connection from="-313471979" to="293871266" fromLane="1" toLane="1"/>
    <connection from="-313471979" to="220528679#0" fromLane="1" toLane="1"/>
    <connection from="-313471979" to="313471979" fromLane="1" toLane="1"/>

    <connection from="-313500943" to="313500941" fromLane="0" toLane="0"/>
    <connection from="-313500943" to="313500941" fromLane="1" toLane="1"/>
    <connection from="-313500943" to="433777235" fromLane="1" toLane="0"/>
    <connection from="-313500943" to="313500943" fromLane="1" toLane="1"/>

    <connection from="-315048942" to="623891464" fromLane="0" toLane="0"/>
    <connection from="-315048942" to="-435393454" fromLane="0" toLane="0"/>
    <connection from="-315048942" to="-435393454" fromLane="1" toLane="1"/>

    <connection from="-316762108#0" to="435555349#0" fromLane="0" toLane="0"/>
    <connection from="-316762108#0" to="435555349#0" fromLane="1" toLane="1"/>
    <connection from="-316762108#0" to="435556085" fromLane="1" toLane="0"/>

    <connection from="-318749976" to="318749976" fromLane="1" toLane="2"/>

    <connection from="-319345471" to="-134319745#0" fromLane="0" toLane="1"/>
    <connection from="-319345471" to="615900435" fromLane="1" toLane="2"/>

    <connection from="-319510094#0" to="-57377113#1" fromLane="0" toLane="0"/>
    <connection from="-319510094#0" to="-57377113#1" fromLane="1" toLane="1"/>

    <connection from="-320504230" to="-435558495" fromLane="0" toLane="0"/>
    <connection from="-320504230" to="488357314" fromLane="1" toLane="1"/>
    <connection from="-320504230" to="320504230" fromLane="1" toLane="1"/>

    <connection from="-32122521" to="-643684120" fromLane="0" toLane="0"/>
    <connection from="-32122521" to="-643684120" fromLane="1" toLane="1"/>
    <connection from="-32122521" to="24574563" fromLane="1" toLane="1"/>
    <connection from="-32122521" to="32122521" fromLane="1" toLane="1"/>

    <connection from="-33262455#1" to="48842734" fromLane="0" toLane="0"/>
    <connection from="-33262455#1" to="48842734" fromLane="1" toLane="1"/>

    <connection from="-33262501" to="435657964" fromLane="0" toLane="0"/>
    <connection from="-33262501" to="-435657947" fromLane="0" toLane="0"/>
    <connection from="-33262501" to="-406711245" fromLane="1" toLane="1"/>

    <connection from="-35333843" to="253737721" fromLane="0" toLane="2"/>
    <connection from="-35333843" to="253737721" fromLane="1" toLane="3"/>
    <connection from="-35333843" to="35333843" fromLane="1" toLane="1"/>

    <connection from="-366047971#2" to="372659482" fromLane="0" toLane="1"/>
    <connection from="-366047971#2" to="232465343" fromLane="1" toLane="1"/>
    <connection from="-366047971#2" to="366047971#2" fromLane="1" toLane="1"/>

    <connection from="-366047971#3" to="623882978" fromLane="0" toLane="0"/>
    <connection from="-366047971#3" to="623882978" fromLane="1" toLane="1"/>
    <connection from="-366047971#3" to="-366047971#2" fromLane="1" toLane="0"/>
    <connection from="-366047971#3" to="366047971#3" fromLane="1" toLane="1"/>

    <connection from="-36898113" to="377897004#1" fromLane="0" toLane="0"/>
    <connection from="-36898113" to="377897004#1" fromLane="1" toLane="1"/>
    <connection from="-36898113" to="-435381804" fromLane="1" toLane="0"/>

    <connection from="-372659482" to="232465343" fromLane="0" toLane="0"/>
    <connection from="-372659482" to="232465343" fromLane="1" toLane="1"/>
    <connection from="-372659482" to="366047971#2" fromLane="1" toLane="0"/>
    <connection from="-372659482" to="372659482" fromLane="1" toLane="1"/>

    <connection from="-373852569#1" to="615643358" fromLane="0" toLane="1"/>
    <connection from="-373852569#1" to="615643358" fromLane="1" toLane="2"/>

    <connection from="-400090624" to="435365964" fromLane="0" toLane="0"/>
    <connection from="-400090624" to="435365964" fromLane="1" toLane="1"/>
    <connection from="-400090624" to="-435367193" fromLane="1" toLane="0"/>

    <connection from="-401896408" to="435397365" fromLane="0" toLane="0"/>
    <connection from="-401896408" to="-435397271" fromLane="0" toLane="1"/>
    <connection from="-401896408" to="-435397354" fromLane="1" toLane="2"/>

    <connection from="-406711245" to="435543549" fromLane="0" toLane="0"/>
    <connection from="-406711245" to="435543549" fromLane="1" toLane="1"/>
    <connection from="-406711245" to="-623940494" fromLane="1" toLane="0"/>

    <connection from="-427960706" to="-435397356" fromLane="0" toLane="1"/>
    <connection from="-427960706" to="435397286" fromLane="1" toLane="1"/>
    <connection from="-427960706" to="427960706" fromLane="1" toLane="1"/>

    <connection from="-42942581" to="-42942582" fromLane="0" toLane="0"/>
    <connection from="-42942581" to="-42942582" fromLane="1" toLane="1"/>
    <connection from="-42942581" to="-146010267" fromLane="1" toLane="1"/>
    <connection from="-42942581" to="42942581" fromLane="1" toLane="1"/>

    <connection from="-42942582" to="624093902" fromLane="0" toLane="0"/>
    <connection from="-42942582" to="624093902" fromLane="1" toLane="1"/>
    <connection from="-42942582" to="-624101243" fromLane="1" toLane="0"/>

    <connection from="-432375796#0" to="24073925" fromLane="0" toLane="0"/>
    <connection from="-432375796#0" to="633300069#0" fromLane="1" toLane="1"/>
    <connection from="-432375796#0" to="24105976" fromLane="1" toLane="1"/>
    <connection from="-432375796#0" to="432375796#0" fromLane="1" toLane="2"/>

    <connection from="-432382566" to="-664954292" fromLane="0" toLane="0"/>
    <connection from="-432382566" to="-664954292" fromLane="1" toLane="1"/>
    <connection from="-432382566" to="8429295#0" fromLane="2" toLane="1"/>

    <connection from="-433173474" to="-24073925" fromLane="0" toLane="1"/>
    <connection from="-433173474" to="435709727" fromLane="1" toLane="3"/>
    <connection from="-433173474" to="433173474" fromLane="1" toLane="1"/>

    <connection from="-433777235" to="313500943" fromLane="0" toLane="1"/>
    <connection from="-433777235" to="313500941" fromLane="1" toLane="1"/>
    <connection from="-433777235" to="433777235" fromLane="1" toLane="1"/>

    <connection from="-433777237" to="-433780233" fromLane="0" toLane="0"/>
    <connection from="-433777237" to="-313500943" fromLane="0" toLane="0"/>
    <connection from="-433777237" to="-313500943" fromLane="1" toLane="1"/>
    <connection from="-433777237" to="632301930" fromLane="1" toLane="1"/>

    <connection from="-433780232" to="435724043#0" fromLane="0" toLane="0"/>
    <connection from="-433780232" to="-435724096" fromLane="0" toLane="0"/>
    <connection from="-433780232" to="-435724096" fromLane="1" toLane="1"/>
    <connection from="-433780232" to="433780232" fromLane="1" toLane="1"/>

    <connection from="-433780233" to="233930070" fromLane="0" toLane="0"/>
    <connection from="-433780233" to="233930070" fromLane="1" toLane="1"/>
    <connection from="-433780233" to="433780233" fromLane="1" toLane="1"/>

    <connection from="-433780234" to="-36898113" fromLane="0" toLane="0"/>
    <connection from="-433780234" to="-435724023" fromLane="1" toLane="1"/>
    <connection from="-433780234" to="433780234" fromLane="1" toLane="1"/>

    <connection from="-433784887" to="-433784890" fromLane="0" toLane="0"/>
    <connection from="-433784887" to="294712584" fromLane="1" toLane="0"/>

    <connection from="-433784890" to="-24071819" fromLane="0" toLane="0"/>
    <connection from="-433784890" to="-24071819" fromLane="0" toLane="1"/>
    <connection from="-433784890" to="316764834" fromLane="0" toLane="1"/>
    <connection from="-433784890" to="433784890" fromLane="0" toLane="1"/>

    <connection from="-434705479" to="435724063" fromLane="0" toLane="1"/>
    <connection from="-434705479" to="435724063" fromLane="1" toLane="2"/>
    <connection from="-434705479" to="59407145#0" fromLane="1" toLane="1"/>
    <connection from="-434705479" to="434705479" fromLane="1" toLane="1"/>

    <connection from="-435329582" to="24088872#0" fromLane="0" toLane="0"/>
    <connection from="-435329582" to="624084639#1" fromLane="0" toLane="0"/>
    <connection from="-435329582" to="641710651#0" fromLane="1" toLane="0"/>
    <connection from="-435329582" to="435329582" fromLane="1" toLane="2"/>

    <connection from="-435331447#0" to="435838723" fromLane="0" toLane="0"/>
    <connection from="-435331447#0" to="-31232996" fromLane="1" toLane="1"/>
    <connection from="-435331447#0" to="-42942581" fromLane="1" toLane="1"/>
    <connection from="-435331447#0" to="435331447#0" fromLane="1" toLane="1"/>

    <connection from="-435332787" to="641622584" fromLane="0" toLane="0"/>
    <connection from="-435332787" to="-23761426" fromLane="0" toLane="1"/>
    <connection from="-435332787" to="-435332802" fromLane="1" toLane="1"/>

    <connection from="-435332793" to="-435654252" fromLane="0" toLane="0"/>
    <connection from="-435332793" to="231365447" fromLane="0" toLane="1"/>
    <connection from="-435332793" to="435332793" fromLane="0" toLane="1"/>

    <connection from="-435332794" to="43027540#0" fromLane="0" toLane="0"/>
    <connection from="-435332794" to="-435332793" fromLane="1" toLane="0"/>
    <connection from="-435332794" to="435654242" fromLane="1" toLane="0"/>

    <connection from="-435332802" to="641710648" fromLane="0" toLane="0"/>
    <connection from="-435332802" to="641710648" fromLane="1" toLane="1"/>