<?xml version="1.0" encoding="UTF-8"?>

<!-- generated on Fri Feb  1 15:24:26 2019 by SUMO duarouter Version 0.25.0
<?xml version="1.0" encoding="UTF-8"?>

<configuration xmlns:xsi="http://www.w3.org/2001/XMLSchema-instance" xsi:noNamespaceSchemaLocation="http://sumo.dlr.de/xsd/duarouterConfiguration.xsd">

    <input>
        <net-file value="sim.net.xml"/>
        <trip-files value="sim.generated-trips.xml"/>
    </input>

    <output>
        <output-file value="sim.rou.xml"/>
    </output>

    <processing>
        <ignore-errors value="true"/>
    </processing>

</configuration>
-->

<routes xmlns:xsi="http://www.w3.org/2001/XMLSchema-instance" xsi:noNamespaceSchemaLocation="http://sumo.dlr.de/xsd/routes_file.xsd">
    <vType id="Default" length="5.00" maxSpeed="70.00">
        <carFollowing-Krauss accel="2.60" decel="4.50" sigma="0.50"/>
    </vType>
    <vehicle id="Area Flow 1-754" type="Default" depart="1.00" color="13,45,16">
        <route edges="-231305591 23188286 435547803 435397241 435397244 435397251 435397246 220528679#0 4476709#1 79654803#0 79654803#1 79654803#2 79654803#5 79654803#7 48785112#0 435724014 435724013 5263032#0 435724035 145846251 435724034 435724032 433784887 315828480 95357377#2 95357377#4 435562592 24215244#0 24215244#1 435342295 320501537 435838730 43028372#1 31392885#1 -435541889 -435541891 -435541892#1 157658424 435536390"/>
    </vehicle>
    <vehicle id="Area Flow 1-645" type="Default" depart="2.00" color="13,45,16">
        <route edges="435359943 240337217 623882999 623882992 623882979 435393423 435831063 221317663 -59196050#1 435657947 33262501 435657956 435659096 56460701 27803812 315088588 143930349 435724126 24220350 316169792 435724128 373847549 620366463 435724021 134319745#0 319345471 435724108 145846251 435724034 435724032 433784887 315828480 95357377#2 95357377#4 435562592 24215244#0 24215244#1 435342295 320501537 435838730 43028372#1 31392885#1 -435541889 157093111"/>
    </vehicle>
    <vehicle id="Area Flow 1-952" type="Default" depart="2.00" color="13,45,16">
        <route edges="-541415552 -435547796#1 -435545080 -435545081 -401896408 -435397271 -288594593 -488118937 24231504 621625481 621625477 -26231830 -5120694#1 -433777235 313500943 433777237 23646718#1 435724049 243832391 435724050 491188972#1 117577298#0 117577298#2 -435381813 202375198 117576369 438606624 -231365447 435332793 435332794 641710631 31232996 435331447#0 -56242433#4"/>
    </vehicle>
    <vehicle id="Area Flow 1-451" type="Default" depart="3.00" color="13,45,16">
        <route edges="435365953 240337217 623882999 623882992 623882979 435393423 435831063 221317663 -59196050#1 435657947 33262501 435657956 435659096 56460701 27803812 315088588 143930349 435724126 24220350 316169792 435724128 373847549 620366463 435724021 134319745#0 319345471 435724108 145846251 435724034 435724032 433784887 315828480 95357377#2 95357377#4 435562592 24215244#0 24215244#1 435342295 320501537 435536355 435536351 617051625 143927786 253737721 -488356387 488356387"/>
    </vehicle>
    <vehicle id="Area Flow 1-496" type="Default" depart="4.00" color="13,45,16">
        <route edges="435365953 240337217 623882999 623882992 623882979 435393423 435831063 221317663 -59196050#1 435657947 33262501 435657956 435659096 56460701 27803812 315088588 143930349 435724126 24220350 316169792 435724128 373847549 620366463 435724021 134319745#0 319345471 435724108 145846251 435724034 435724032 433784887 315828480 95357377#2 95357377#4 435562592 24215244#0 24215244#1 435342295 320501537 435838730 43028372#1 31392885#1 -435541889 -435541891"/>
    </vehicle>
    <vehicle id="Area Flow 1-454" type="Default" depart="5.00" color="13,45,16">
        <route edges="435359943 240337217 623882999 623882992 623882979 435393423 435831063 221317663 -59196050#1 435657947 33262501 435657956 435659096 56460701 27803812 315088588 143930349 435724126 24220350 316169792 435724128 373847549 620366463 435724021 134319745#0 319345471 435724108 145846251 435724034 435724032 433784887 315828480 95357377#2 95357377#4 435562592 24215244#0 24215244#1 435342295 320501537 435536355 435536351 617051625 143927786 253737721 -488356387 488356387"/>
    </vehicle>
    <vehicle id="Area Flow 1-668" type="Default" depart="5.00" color="13,45,16">
        <route edges="435365953 240337217 623882999 623882992 623882979 435393423 435831063 221317663 -59196050#1 435657947 33262501 435657956 435659096 56460701 27803812 315088588 143930349 435724126 24220350 316169792 435724128 373847549 620366463 435724021 134319745#0 319345471 435724108 145846251 435724034 435724032 433784887 315828480 95357377#2 95357377#4 435562592 24215244#0 24215244#1 435342295 320501537 435536355 435536351 617051625 143927786"/>
    </vehicle>
    <vehicle id="Area Flow 1-349" type="Default" depart="8.00" color="13,45,16">
        <route edges="231603332 -435540132 -253740823 -621257000#1 435397241 435397244 435397251 435397246 220528679#0 4476709#1 79654803#0 79654803#1 79654803#2 79654803#5 79654803#7 48785112#0 435724014 435724013 5263032#0 435724035 145846251 435724034 435724032 433784887 315828480 95357377#2 95357377#4 435562592 24215244#0 24215244#1 435342295 320501537 435838730 43028372#1 31392885#1 -435541889 -435541891 145826631"/>
    </vehicle>
    <vehicle id="Area Flow 1-813" type="Default" depart="8.00" color="13,45,16">
        <route edges="23188286 435547803 435397241 435397244 435397251 435397246 220528679#0 4476709#1 79654803#0 79654803#1 79654803#2 79654803#5 79654803#7 48785112#0 435724014 435724013 5263032#0 435724035 145846251 435724034 435724032 433784887 315828480 95357377#2 95357377#4 435562592 24215244#0 24215244#1 435342295 320501537 435838730 43028372#1 31392885#1 -435541889 -435541891 -435541892#1"/>
    </vehicle>
    <vehicle id="Area Flow 1-575" type="Default" depart="9.00" color="13,45,16">
        <route edges="435540132 -231603332 -621257000#1 435397241 435397244 435397251 435397246 220528679#0 4476709#1 79654803#0 79654803#1 79654803#2 79654803#5 79654803#7 48785112#0 435724014 435724013 5263032#0 435724035 145846251 435724034 435724032 433784887 315828480 95357377#2 95357377#4 435562592 24215244#0 24215244#1 435342295 320501537 435536355 435536351 617051625 143927786 253737721 -488356387"/>
    </vehicle>
    <vehicle id="Area Flow 1-901" type="Default" depart="10.00" color="13,45,16">
        <route edges="-253740823 -401896408 -435397271 -288594593 -488118937 24231504 621625481 621625477 -26231830 -5120694#1 -433777235 313500943 433777237 23646718#1 435724049 243832391 435724050 491188972#1 117577298#0 117577298#2 -435381813 202375198 117576369 438606624 -231365447 435332793 435332794 641710631 31232996 435331447#0 146010267"/>
    </vehicle>
    <vehicle id="Area Flow 1-623" type="Default" depart="11.00" color="13,45,16">
        <route edges="240337217 623882999 623882992 623882979 435393423 435831063 221317663 -59196050#1 435657947 33262501 435657956 435659096 56460701 27803812 315088588 143930349 435724126 24220350 316169792 435724128 373847549 620366463 435724021 134319745#0 319345471 435724108 145846251 435724034 435724032 433784887 315828480 95357377#2 95357377#4 435562592 24215244#0 24215244#1 435342295 320501537 435536355 435536351 617051625 143927786 253737721 617086267"/>
    </vehicle>
    <vehicle id="Area Flow 1-963" type="Default" depart="12.00" color="13,45,16">
        <route edges="435365969 435359943 240337217 623882999 623882992 623882979 435393423 435831063 221317663 -59196050#1 435657947 33262501 435657956 435659096 56460701 27803812 315088588 143930349 435724126 24220350 316169792 435724128 373847549 620366463 435724021 134319745#0 319345471 435724108 145846251 435724034 435724032 433784887 315828480 95357377#2 95357377#4 435562592 24215244#0 24215244#1 435342295 320501537 435536355 435536351 617051625 143927786 253737721 -488356387 -435541888"/>
    </vehicle>
    <vehicle id="Area Flow 1-213" type="Default" depart="14.00" color="13,45,16">
        <route edges="-541415552 -435547796#1 -435545080 435547803 435397241 435397244 435397251 435397246 220528679#0 4476709#1 79654803#0 79654803#1 79654803#2 79654803#5 79654803#7 48785112#0 435724014 435724013 5263032#0 435724035 145846251 435724034 435724032 433784887 315828480 95357377#2 95357377#4 435562592 24215244#0 24215244#1 435342295 320501537 435536355 435536351 617051625 143927786 35333843"/>
    </vehicle>
    <vehicle id="Area Flow 1-407" type="Default" depart="14.00" color="13,45,16">
        <route edges="240337217 623882999 623882992 623882979 435393423 -366047971#3 -366047971#2 232465343 435393414 623940526 435543543 623940496 624047450 435709718 435709716#1 435709732 643684120 32122521 433248467#1 624058367 664982213 432382640#0 432382641#0 624239304 115893397#1 624084639#1 624101243 42942582"/>
    </vehicle>
    <vehicle id="Area Flow 1-991" type="Default" depart="15.00" color="13,45,16">
        <route edges="-253740823 -401896408 -435397271 -288594593 -488118937 24231504 621625481 621625477 -26231830 -5120694#1 -433777235 313500943 433777237 23646718#1 435724049 243832391 435724050 491188972#1 117577298#0 117577298#2 -435381813 202375198 117576369 438606624 -231365447 435332793 435332794 641710631 31232996 435331447#0 488118931 -488118931"/>
    </vehicle>
    <vehicle id="Area Flow 1-315" type="Default" depart="17.00" color="13,45,16">
        <route edges="-253740823 -401896408 -435397271 -288594593 -488118937 24231504 621625481 621625477 -26231830 -5120694#1 -433777235 313500943 433777237 23646718#1 435724049 243832391 435724050 491188972#1 117577298#0 117577298#2 -435381813 202375198 117576369 438606624 -231365447 435332793 435332794 641710631 31232996 435331447#0 488118931"/>
    </vehicle>
    <vehicle id="Area Flow 1-319" type="Default" depart="20.00" color="13,45,16">
        <route edges="-435359942 240337217 623882999 623882992 623882979 435393423 -366047971#3 -366047971#2 232465343 435393414 623940526 435543543 623940496 624047450 435709718 435709716#1 435709732 643684120 32122521 433248467#1 624058367 664982213 432382640#0 432382641#0 624239304 115893397#1 624084639#1"/>
    </vehicle>
    <vehicle id="Area Flow 1-838" type="Default" depart="21.00" color="13,45,16">
        <route edges="-435547796#1 -435545080 435547803 435397241 435397244 435397251 435397246 220528679#0 4476709#1 79654803#0 79654803#1 79654803#2 79654803#5 79654803#7 48785112#0 435724014 435724013 5263032#0 435724035 145846251 435724034 435724032 433784887 315828480 95357377#2 95357377#4 435562592 24215244#0 24215244#1 435342295 320501537 435838730 43028372#1 31392885#1 -435541889 -435541891 -435541892#1 157658424 435536390"/>
    </vehicle>
    <vehicle id="Area Flow 1-257" type="Default" depart="24.00" color="13,45,16">
        <route edges="435365964 435359943 240337217 623882999 623882992 623882979 435393423 -366047971#3 -366047971#2 232465343 435393414 623940526 435543543 623940496 624047450 435709718 435709716#1 435709732 643684120 32122521 433248467#1 624058367 664982213 432382640#0 432382641#0 624239304 115893397#1 624084639#1"/>
    </vehicle>
    <vehicle id="Area Flow 1-988" type="Default" depart="24.00" color="13,45,16">
        <route edges="435365964 435359943 240337217 623882999 623882992 623882979 435393423 435831063 221317663 -59196050#1 435657947 33262501 435657956 435659096 56460701 27803812 315088588 143930349 435724126 24220350 316169792 435724128 373847549 620366463 435724021 134319745#0 319345471 435724108 145846251 435724034 435724032 433784887 315828480 95357377#2 95357377#4 435562592 24215244#0 24215244#1 435342295 320501537 435838730 43028372#1 31392885#1 -435541889 -435541891 435541891"/>
    </vehicle>
    <vehicle id="Area Flow 1-66" type="Default" depart="25.00" color="13,45,16">
        <route edges="435547805#0 -435547796#1 -435545080 435547803 435397241 435397244 435397251 435397246 220528679#0 4476709#1 79654803#0 79654803#1 79654803#2 79654803#5 79654803#7 48785112#0 435724014 435724013 5263032#0 435724035 145846251 435724034 435724032 433784887 315828480 95357377#2 95357377#4 435562592 24215244#0 24215244#1 435342295 320501537 435536355 435536351 617051625 143927786 253737721 229737913"/>
    </vehicle>
    <vehicle id="Area Flow 1-4" type="Default" depart="27.00" color="13,45,16">
        <route edges="435365969 435359943 240337217 623882999 623882992 623882979 435393423 435831063 221317663 -59196050#1 435657947 33262501 435657956 435659096 56460701 27803812 315088588 143930349 435724126 24220350 316169792 435724128 373847549 620366463 435724021 134319745#0 319345471 435724108 145846251 435724034 435724032 433784887 315828480 95357377#2 95357377#4 435562592 24215244#0 24215244#1 435342295 320501537 435838730 43028372#1 31392885#1 435385398"/>
    </vehicle>
    <vehicle id="Area Flow 1-894" type="Default" depart="27.00" color="13,45,16">
        <route edges="435359943 240337217 623882999 623882992 623882979 435393423 435831063 221317663 -59196050#1 435657947 33262501 435657956 435659096 56460701 27803812 315088588 143930349 435724126 24220350 316169792 435724128 373847549 620366463 435724021 134319745#0 319345471 435724108 145846251 435724034 435724032 433784887 315828480 95357377#2 95357377#4 435562592 24215244#0 24215244#1 435342295 320501537 435536355 -145826633 435536391#0"/>
    </vehicle>
    <vehicle id="Area Flow 1-240" type="Default" depart="28.00" color="13,45,16">
        <route edges="-231603332 -621257000#1 435397241 435397244 435397251 435397246 220528679#0 4476709#1 79654803#0 79654803#1 79654803#2 79654803#5 79654803#7 48785112#0 435724014 435724013 5263032#0 435724035 145846251 435724034 435724032 433784887 315828480 95357377#2 95357377#4 435562592 24215244#0 24215244#1 435342295 320501537 435838730 43028372#1 31392885#1 -435541889 435541889"/>
    </vehicle>
    <vehicle id="Area Flow 1-414" type="Default" depart="28.00" color="13,45,16">
        <route edges="-435365969 -231603332 -621257000#1 435397241 435397244 435397251 435397246 220528679#0 4476709#1 79654803#0 79654803#1 79654803#2 79654803#5 79654803#7 48785112#0 435724014 435724013 5263032#0 435724035 145846251 435724034 435724032 433784887 315828480 95357377#2 95357377#4 435562592 24215244#0 24215244#1 435342295 320501537 435838730 43028372#1 31392885#1 435385398"/>
    </vehicle>
    <vehicle id="Area Flow 1-283" type="Default" depart="29.00" color="13,45,16">
        <route edges="-23188286 435547811 -253740823 -621257000#1 435397241 435397244 435397251 435397246 220528679#0 4476709#1 79654803#0 79654803#1 79654803#2 79654803#5 79654803#7 48785112#0 435724014 435724013 5263032#0 435724035 145846251 435724034 435724032 433784887 315828480 95357377#2 95357377#4 435562592 24215244#0 24215244#1 435342295 320501537 435838730 43028372#1 31392885#1 -435541889 -435541891 435541891"/>
    </vehicle>
    <vehicle id="Area Flow 1-361" type="Default" depart="29.00" color="13,45,16">
        <route edges="-435547796#1 -435545080 435547803 435397241 435397244 435397251 435397246 220528679#0 4476709#1 79654803#0 79654803#1 79654803#2 79654803#5 79654803#7 48785112#0 435724014 435724013 5263032#0 435724035 145846251 435724034 435724032 433784887 315828480 95357377#2 95357377#4 435562592 24215244#0 24215244#1 435342295 320501537 435838730 43028372#1 31392885#1 -435541889 -435541891 -435541892#1"/>
    </vehicle>
    <vehicle id="Area Flow 1-225" type="Default" depart="32.00" color="13,45,16">
        <route edges="435540132 -231603332 -401896408 -435397271 -288594593 -488118937 24231504 621625481 621625477 -26231830 -5120694#1 -433777235 313500943 433777237 23646718#1 435724049 243832391 435724050 491188972#1 117577298#0 117577298#2 -435381813 202375198 117576369 438606624 -231365447 435332793 435332794 641710631 31232996 -42942581 -42942582 -624101243 624101243"/>
    </vehicle>
    <vehicle id="Area Flow 1-358" type="Default" depart="33.00" color="13,45,16">
        <route edges="435547811 -253740823 -621257000#1 435397241 435397244 435397251 435397246 220528679#0 4476709#1 79654803#0 79654803#1 79654803#2 79654803#5 79654803#7 48785112#0 435724014 435724013 5263032#0 435724035 145846251 435724034 435724032 433784887 315828480 95357377#2 95357377#4 435562592 24215244#0 24215244#1 435342295 320501537 435838730 43028372#1 31392885#1 -435541889 435541889"/>
    </vehicle>
    <vehicle id="Area Flow 1-376" type="Default" depart="34.00" color="13,45,16">
        <route edges="435547805#0 -435547796#1 -435545080 -435545081 -401896408 -435397271 -288594593 -488118937 24231504 621625481 621625477 -26231830 -5120694#1 -433777235 313500943 433777237 23646718#1 435724049 243832391 435724050 491188972#1 117577298#0 117577298#2 -435381813 202375198 117576369 438606624 -231365447 435332793 435332794 641710631 31232996 435331447#0 -56242433#4"/>
    </vehicle>
    <vehicle id="Area Flow 1-461" type="Default" depart="34.00" color="13,45,16">
        <route edges="-231603332 -401896408 -435397271 -288594593 -488118937 24231504 621625481 621625477 -26231830 -5120694#1 -433777235 313500943 433777237 23646718#1 435724049 243832391 435724050 491188972#1 117577298#0 117577298#2 -435381813 202375198 117576369 438606624 -231365447 435332793 435332794 641710631 31232996 -42942581"/>
    </vehicle>
    <vehicle id="Area Flow 1-950" type="Default" depart="35.00" color="13,45,16">
        <route edges="253740823 -435547811 23188286 435547803 435397241 435397244 435397251 435397246 220528679#0 4476709#1 79654803#0 79654803#1 79654803#2 79654803#5 79654803#7 48785112#0 435724014 435724013 5263032#0 435724035 145846251 435724034 435724032 433784887 315828480 95357377#2 95357377#4 435562592 24215244#0 24215244#1 435342295 320501537 435536355 435536351 617051625 143927786"/>
    </vehicle>
    <vehicle id="Area Flow 1-482" type="Default" depart="36.00" color="13,45,16">
        <route edges="435547796#1 -435547796#1 -435545080 435547803 435397241 435397244 435397251 435397246 220528679#0 4476709#1 79654803#0 79654803#1 79654803#2 79654803#5 79654803#7 48785112#0 435724014 435724013 5263032#0 435724035 145846251 435724034 435724032 433784887 315828480 95357377#2 95357377#4 435562592 24215244#0 24215244#1 435342295 320501537 435838730 43028372#1 31392885#1 -435541889 -435541891 -435541892#1 -435709851 -229737913"/>
    </vehicle>
    <vehicle id="Area Flow 1-694" type="Default" depart="40.00" color="13,45,16">
        <route edges="-435540132 -253740823 -621257000#1 435397241 435397244 435397251 435397246 220528679#0 4476709#1 79654803#0 79654803#1 79654803#2 79654803#5 79654803#7 48785112#0 435724014 435724013 5263032#0 435724035 145846251 435724034 435724032 433784887 315828480 95357377#2 95357377#4 435562592 24215244#0 24215244#1 435342295 320501537 435838730 43028372#1 31392885#1 -435541889 -435541891"/>
    </vehicle>
    <vehicle id="Area Flow 1-780" type="Default" depart="40.00" color="13,45,16">
        <route edges="-435540132 -253740823 -621257000#1 435397241 435397244 435397251 435397246 220528679#0 4476709#1 79654803#0 79654803#1 79654803#2 79654803#5 79654803#7 48785112#0 435724014 435724013 5263032#0 435724035 145846251 435724034 435724032 433784887 315828480 95357377#2 95357377#4 435562592 24215244#0 24215244#1 435342295 320501537 435838730 43028372#1 31392885#1 -435541889 -435541891 -435541892#1 157658424"/>
    </vehicle>
    <vehicle id="Area Flow 1-554" type="Default" depart="47.00" color="13,45,16">
        <route edges="-231305591 435547811 -253740823 -401896408 -435397271 -288594593 -488118937 24231504 621625481 621625477 -26231830 -5120694#1 -433777235 313500943 433777237 23646718#1 435724049 243832391 435724050 491188972#1 117577298#0 117577298#2 -435381813 202375198 117576369 438606624 -231365447 435332793 435332794 641710631 31232996 -42942581 -146010267"/>
    </vehicle>
    <vehicle id="Area Flow 1-790" type="Default" depart="53.00" color="13,45,16">
        <route edges="-23188286 435547811 -253740823 -401896408 -435397271 -288594593 -488118937 24231504 621625481 621625477 -26231830 -5120694#1 -433777235 313500943 433777237 23646718#1 435724049 243832391 435724050 491188972#1 117577298#0 117577298#2 -435381813 202375198 117576369 438606624 -231365447 435332793 435332794 641710631 31232996 -42942581 -42942582"/>
    </vehicle>
    <vehicle id="Area Flow 1-974" type="Default" depart="53.00" color="13,45,16">
        <route edges="-435547811 23188286 -435545081 -401896408 -435397271 -288594593 -488118937 24231504 621625481 621625477 -26231830 -5120694#1 -433777235 313500943 433777237 23646718#1 435724049 243832391 435724050 491188972#1 117577298#0 117577298#2 -435381813 202375198 117576369 438606624 -231365447 435332793 435332794 641710631 31232996 435331447#0"/>
    </vehicle>
    <vehicle id="Area Flow 1-118" type="Default" depart="54.00" color="13,45,16">
        <route edges="-435359942 240337217 623882999 623882992 623882979 435393423 -366047971#3 -366047971#2 232465343 435393414 623940526 435543543 623940496 624047450 435709718 435709716#1 435709732 643684120 32122521 433248467#1 624058367 664982213 432382640#0 432382641#0 624239304 115893397#1 624084639#1"/>
    </vehicle>
    <vehicle id="Area Flow 1-314" type="Default" depart="54.00" color="13,45,16">
        <route edges="-231603332 -621257000#1 435397241 435397244 435397251 435397246 220528679#0 4476709#1 79654803#0 79654803#1 79654803#2 79654803#5 79654803#7 48785112#0 435724014 435724013 5263032#0 435724035 145846251 435724034 435724032 433784887 315828480 95357377#2 95357377#4 435562592 24215244#0 24215244#1 435342295 320501537 435536355 435536351 617051625 143927786 35333843"/>
    </vehicle>
    <vehicle id="Area Flow 1-379" type="Default" depart="54.00" color="13,45,16">
        <route edges="435365953 240337217 623882999 623882992 623882979 435393423 435831063 221317663 -59196050#1 435657947 33262501 435657956 435659096 56460701 27803812 315088588 143930349 435724126 24220350 316169792 435724128 373847549 620366463 435724021 134319745#0 319345471 435724108 145846251 435724034 435724032 433784887 315828480 95357377#2 95357377#4 435562592 24215244#0 24215244#1 435342295 320501537 435838730 43028372#1 31392885#1 435385398"/>
    </vehicle>
    <vehicle id="Area Flow 1-936" type="Default" depart="57.00" color="13,45,16">
        <route edges="-231305591 23188286 435547803 435397241 435397244 435397251 435397246 220528679#0 4476709#1 79654803#0 79654803#1 79654803#2 79654803#5 79654803#7 48785112#0 435724014 435724013 5263032#0 435724035 145846251 435724034 435724032 433784887 315828480 95357377#2 95357377#4 435562592 24215244#0 24215244#1 435342295 320501537 435838730 43028372#1 31392885#1 -435541889 -435541891"/>
    </vehicle>
    <vehicle id="Area Flow 1-432" type="Default" depart="58.00" color="13,45,16">
        <route edges="-435359943 435359943 240337217 623882999 623882992 623882979 435393423 435831063 221317663 -59196050#1 435657947 33262501 435657956 435659096 -5120694#1 -433777235 313500943 433777237 23646718#1 435724049 243832391 435724050 491188972#1 117577298#0 117577298#2 -435381813 202375198 117576369 438606624 -231365447 435332793 435332794 641710631 31232996 435331447#0 146010267"/>
    </vehicle>
    <vehicle id="Area Flow 1-701" type="Default" depart="58.00" color="13,45,16">
        <route edges="435540132 -231603332 -401896408 -435397271 -288594593 -488118937 24231504 621625481 621625477 -26231830 -5120694#1 -433777235 313500943 433777237 23646718#1 435724049 243832391 435724050 491188972#1 117577298#0 117577298#2 -435381813 202375198 117576369 438606624 -231365447 435332793 435332794 641710631 31232996 -42942581 -42942582"/>
    </vehicle>
    <vehicle id="Area Flow 1-126" type="Default" depart="59.00" color="13,45,16">
        <route edges="435359943 240337217 623882999 623882992 623882979 435393423 435831063 221317663 -59196050#1 435657947 33262501 435657956 435659096 56460701 27803812 315088588 143930349 435724126 24220350 316169792 435724128 373847549 620366463 435724021 134319745#0 319345471 435724108 145846251 435724034 435724032 433784887 315828480 95357377#2 95357377#4 435562592 24215244#0 24215244#1 435342295 320501537 435536355 435536351 617051625 143927786 253737721 617086267"/>
    </vehicle>
    <vehicle id="Area Flow 1-289" type="Default" depart="59.00" color="13,45,16">
        <route edges="435365964 435359943 240337217 623882999 623882992 623882979 435393423 435831063 221317663 -59196050#1 435657947 33262501 435657956 435659096 56460701 27803812 315088588 143930349 435724126 24220350 316169792 435724128 373847549 620366463 435724021 134319745#0 319345471 435724108 145846251 435724034 435724032 433784887 315828480 95357377#2 95357377#4 435562592 24215244#0 24215244#1 435342295 320501537 435536355 435536351 617051625 143927786 35333843"/>
    </vehicle>
    <vehicle id="Area Flow 1-494" type="Default" depart="63.00" color="13,45,16">
        <route edges="240337217 623882999 623882992 623882979 435393423 435831063 221317663 -59196050#1 435657947 33262501 435657956 435659096 56460701 27803812 315088588 143930349 435724126 24220350 316169792 435724128 373847549 620366463 435724021 134319745#0 319345471 435724108 145846251 435724034 435724032 433784887 315828480 95357377#2 95357377#4 435562592 24215244#0 24215244#1 435342295 320501537 435838730 43028372#1 31392885#1 -435541889 157093111"/>
    </vehicle>
    <vehicle id="Area Flow 1-402" type="Default" depart="65.00" color="13,45,16">
        <route edges="435547811 -253740823 -621257000#1 435397241 435397244 435397251 435397246 220528679#0 4476709#1 79654803#0 79654803#1 79654803#2 79654803#5 79654803#7 48785112#0 435724014 435724013 5263032#0 435724035 145846251 435724034 435724032 433784887 315828480 95357377#2 95357377#4 435562592 24215244#0 24215244#1 435342295 320501537 435838730 43028372#1 31392885#1 -435541889 -435541891 -435541892#1 157658424"/>
    </vehicle>
    <vehicle id="Area Flow 1-616" type="Default" depart="69.00" color="13,45,16">
        <route edges="-244501322 -435840160 623882992 623882979 435393423 435831063 221317663 -59196050#1 435657947 33262501 435657956 435659096 56460701 27803812 315088588 143930349 435724126 24220350 316169792 435724128 373847549 620366463 435724021 134319745#0 319345471 435724108 145846251 435724034 435724032 433784887 315828480 95357377#2 95357377#4 435562592 24215244#0 24215244#1 435342295 320501537 435838730 43028372#1 31392885#1 -435541889 -435541891 145826631"/>
    </vehicle>
    <vehicle id="Area Flow 1-817" type="Default" depart="71.00" color="13,45,16">
        <route edges="-435547811 23188286 -435545081 -401896408 -435397271 -288594593 -488118937 24231504 621625481 621625477 -26231830 -5120694#1 -433777235 313500943 433777237 23646718#1 435724049 243832391 435724050 491188972#1 117577298#0 117577298#2 -435381813 202375198 117576369 438606624 -231365447 435332793 435332794 641710631 31232996 -42942581 -42942582 -624101243 624101243"/>
    </vehicle>
    <vehicle id="Area Flow 1-40" type="Default" depart="72.00" color="13,45,16">
        <route edges="-435547811 23188286 -435545081 -401896408 -435397271 -288594593 -488118937 24231504 621625481 621625477 -26231830 -5120694#1 -433777235 313500943 433777237 23646718#1 435724049 243832391 435724050 491188972#1 117577298#0 117577298#2 -435381813 202375198 117576369 438606624 -231365447 435332793 435332794 641710631 31232996 -42942581 -42942582 -624101243 -435329533"/>
    </vehicle>
    <vehicle id="Area Flow 1-673" type="Default" depart="73.00" color="13,45,16">
        <route edges="-541415552 -435547796#1 -435545080 435547803 435397241 435397244 435397251 435397246 220528679#0 4476709#1 79654803#0 79654803#1 79654803#2 79654803#5 79654803#7 48785112#0 435724014 435724013 5263032#0 435724035 145846251 435724034 435724032 433784887 315828480 95357377#2 95357377#4 435562592 24215244#0 24215244#1 435342295 320501537 435536355 435536351 617051625 143927786 253737721 -488356387 617868580"/>
    </vehicle>
    <vehicle id="Area Flow 1-553" type="Default" depart="74.00" color="13,45,16">
        <route edges="-435547796#1 -435545080 435547803 435397241 435397244 435397251 435397246 220528679#0 4476709#1 79654803#0 79654803#1 79654803#2 79654803#5 79654803#7 48785112#0 435724014 435724013 5263032#0 435724035 145846251 435724034 435724032 433784887 315828480 95357377#2 95357377#4 435562592 24215244#0 24215244#1 435342295 320501537 435838730 43028372#1 31392885#1 -435541889 -435541891 -435541892#1 -435709851"/>
    </vehicle>
    <vehicle id="Area Flow 1-558" type="Default" depart="75.00" color="13,45,16">
        <route edges="231603332 -435540132 -253740823 -621257000#1 435397241 435397244 435397251 435397246 220528679#0 4476709#1 79654803#0 79654803#1 79654803#2 79654803#5 79654803#7 48785112#0 435724014 435724013 5263032#0 435724035 145846251 435724034 435724032 433784887 315828480 95357377#2 95357377#4 435562592 24215244#0 24215244#1 435342295 320501537 435536355 435536351 617051625 143927786 253737721"/>
    </vehicle>
    <vehicle id="Area Flow 1-56" type="Default" depart="76.00" color="13,45,16">
        <route edges="-435540132 -253740823 -621257000#1 435397241 435397244 435397251 435397246 220528679#0 4476709#1 79654803#0 79654803#1 79654803#2 79654803#5 79654803#7 48785112#0 435724014 435724013 5263032#0 435724035 145846251 435724034 435724032 433784887 315828480 95357377#2 95357377#4 435562592 24215244#0 24215244#1 435342295 320501537 435838730 43028372#1 31392885#1 -435541889 435541889"/>
    </vehicle>
    <vehicle id="Area Flow 1-968" type="Default" depart="76.00" color="13,45,16">
        <route edges="23188286 435547803 435397241 435397244 435397251 435397246 220528679#0 4476709#1 79654803#0 79654803#1 79654803#2 79654803#5 79654803#7 48785112#0 435724014 435724013 5263032#0 435724035 145846251 435724034 435724032 433784887 315828480 95357377#2 95357377#4 435562592 24215244#0 24215244#1 435342295 320501537 435838730 43028372#1 31392885#1 -435541889 -435541891 145826631"/>
    </vehicle>