<?xml version="1.0" encoding="UTF-8"?>

<!-- generated on Sex  1 Fev 15:20:41 2019 by Netedit Version 0.25.0
<?xml version="1.0" encoding="UTF-8"?>

<configuration xmlns:xsi="http://www.w3.org/2001/XMLSchema-instance" xsi:noNamespaceSchemaLocation="http://sumo.dlr.de/xsd/netedit.exeConfiguration.xsd">

    <input>
        <sumo-net-file value="/Users/AllanMSouza/Dropbox/PhD/TMS%20Implementation/TITS_SI/codes/Proposal/scenario/Chicago/sim.net.xml"/>
    </input>

    <output>
        <output-file value="/Users/AllanMSouza/Dropbox/PhD/TMS%20Implementation/TITS_SI/codes/Proposal/scenario/Chicago/sim.net.xml"/>
        <plain-output-prefix value="/Users/AllanMSouza/Dropbox/PhD/TMS%20Implementation/TITS_SI/codes/Proposal/scenario/Chicago/sim"/>
    </output>

    <processing>
        <no-turnarounds value="true"/>
        <offset.disable-normalization value="true"/>
        <lefthand value="false"/>
        <junctions.corner-detail value="0"/>
    </processing>

</configuration>
-->

<tlLogics version="0.25" xmlns:xsi="http://www.w3.org/2001/XMLSchema-instance" xsi:noNamespaceSchemaLocation="http://sumo.dlr.de/xsd/tllogic_file.xsd">
    <tlLogic id="102680962" type="static" programID="0" offset="0">
        <phase duration="66" state="GGGGg"/>
        <phase duration="9" state="yyyyg"/>
        <phase duration="6" state="rrrrG"/>
        <phase duration="9" state="rrrry"/>
    </tlLogic>
    <tlLogic id="102680965" type="static" programID="0" offset="0">
        <phase duration="28" state="rrrrGGGGggg"/>
        <phase duration="9" state="rrrryyyyggg"/>
        <phase duration="6" state="rrrrrrrrGGG"/>
        <phase duration="9" state="rrrrrrrryyy"/>
        <phase duration="29" state="GGGGrrrrrrr"/>
        <phase duration="9" state="yyyyrrrrrrr"/>
    </tlLogic>
    <tlLogic id="102686390" type="static" programID="0" offset="0">
        <phase duration="21" state="rrrGGgrrrGGGgg"/>
        <phase duration="9" state="rrryygrrryyygg"/>
        <phase duration="6" state="rrrrrGrrrrrrGG"/>
        <phase duration="9" state="rrrrryrrrrrryy"/>
        <phase duration="21" state="GGgrrrGGgrrrrr"/>
        <phase duration="9" state="yygrrryygrrrrr"/>
        <phase duration="6" state="rrGrrrrrGrrrrr"/>
        <phase duration="9" state="rryrrrrryrrrrr"/>
    </tlLogic>
    <tlLogic id="102705584" type="static" programID="0" offset="0">
        <phase duration="28" state="GgrrrGGG"/>
        <phase duration="9" state="ygrrryyy"/>
        <phase duration="6" state="rGrrrrrr"/>
        <phase duration="9" state="ryrrrrrr"/>
        <phase duration="29" state="GrGGgGGr"/>
        <phase duration="9" state="yryyyyyr"/>
    </tlLogic>
    <tlLogic id="102708200" type="static" programID="0" offset="0">
        <phase duration="28" state="GGGGgrrrr"/>
        <phase duration="9" state="yyyygrrrr"/>
        <phase duration="6" state="rrrrGrrrr"/>
        <phase duration="9" state="rrrryrrrr"/>
        <phase duration="29" state="GrrrrGGGg"/>
        <phase duration="9" state="yrrrryyyy"/>
    </tlLogic>
    <tlLogic id="102708202" type="static" programID="0" offset="0">
        <phase duration="6" state="rrrrrrrrrrrrrGGGGggrrrrrGGGgggggrrrrrr"/>
        <phase duration="9" state="rrrrrrrrrrrrryyyyggrrrrryyyyggggrrrrrr"/>
        <phase duration="6" state="rrrrrrrrrrrrrrrrrGGrrrrrrrrrGGGGrrrrrr"/>
        <phase duration="9" state="rrrrrrrrrrrrrrrrryyrrrrrrrrryyyyrrrrrr"/>
        <phase duration="6" state="GGGGGGgggggGgrrrrrrrrrrrrrrrrrrrrrrrrr"/>
        <phase duration="9" state="yyyyyygggggygrrrrrrrrrrrrrrrrrrrrrrrrr"/>
        <phase duration="6" state="rrrrrrGGGGGrGrrrrrrrrrrrrrrrrrrrrrrrrr"/>
        <phase duration="9" state="rrrrrryyyyyryrrrrrrrrrrrrrrrrrrrrrrrrr"/>
        <phase duration="6" state="rrrrrrrrrrrrrrrrrrrGGGGgrrrrrrrrGGgggg"/>
        <phase duration="9" state="rrrrrrrrrrrrrrrrrrryyyygrrrrrrrryygggg"/>
        <phase duration="6" state="rrrrrrrrrrrrrrrrrrrrrrrGrrrrrrrrrrGGGG"/>
        <phase duration="9" state="rrrrrrrrrrrrrrrrrrrrrrryrrrrrrrrrryyyy"/>
    </tlLogic>
    <tlLogic id="102708203" type="static" programID="0" offset="0">
        <phase duration="21" state="GGGgrrrGGGgrrr"/>
        <phase duration="9" state="yyygrrryyygrrr"/>
        <phase duration="6" state="rrrGrrrrrrGrrr"/>
        <phase duration="9" state="rrryrrrrrryrrr"/>
        <phase duration="21" state="rrrrGGgrrrrGGg"/>
        <phase duration="9" state="rrrryygrrrryyg"/>
        <phase duration="6" state="rrrrrrGrrrrrrG"/>
        <phase duration="9" state="rrrrrryrrrrrry"/>
    </tlLogic>
    <tlLogic id="102713547" type="static" programID="0" offset="0">
        <phase duration="21" state="GGGggrrrGGGgrrr"/>
        <phase duration="9" state="yyyggrrryyygrrr"/>
        <phase duration="6" state="rrrGGrrrrrrGrrr"/>
        <phase duration="9" state="rrryyrrrrrryrrr"/>
        <phase duration="21" state="rrrrrGGgrrrrGGg"/>
        <phase duration="9" state="rrrrryygrrrryyg"/>
        <phase duration="6" state="rrrrrrrGrrrrrrG"/>
        <phase duration="9" state="rrrrrrryrrrrrry"/>
    </tlLogic>
    <tlLogic id="102713551" type="static" programID="0" offset="0">
        <phase duration="28" state="GggGGGgrrrr"/>
        <phase duration="9" state="yggyyygrrrr"/>
        <phase duration="6" state="rGGrrrGrrrr"/>
        <phase duration="9" state="ryyrrryrrrr"/>
        <phase duration="29" state="rrrrrrrGGGG"/>
        <phase duration="9" state="rrrrrrryyyy"/>
    </tlLogic>
    <tlLogic id="102713553" type="static" programID="0" offset="0">
        <phase duration="28" state="GGggrrGGGg"/>
        <phase duration="9" state="yyggrryyyg"/>
        <phase duration="6" state="rrGGrrrrrG"/>
        <phase duration="9" state="rryyrrrrry"/>
        <phase duration="29" state="rrrrGGGrrr"/>
        <phase duration="9" state="rrrryyyrrr"/>
    </tlLogic>
    <tlLogic id="102713556" type="static" programID="0" offset="0">
        <phase duration="28" state="GGggrrrGGGg"/>
        <phase duration="9" state="yyggrrryyyg"/>
        <phase duration="6" state="rrGGrrrrrrG"/>
        <phase duration="9" state="rryyrrrrrry"/>
        <phase duration="29" state="rrrrGGgGrrr"/>
        <phase duration="9" state="rrrryyyyrrr"/>
    </tlLogic>
    <tlLogic id="102723053" type="static" programID="0" offset="0">
        <phase duration="21" state="rrrrrGGgrrrrGGGgg"/>
        <phase duration="9" state="rrrrryygrrrryyygg"/>
        <phase duration="6" state="rrrrrrrGrrrrrrrGG"/>
        <phase duration="9" state="rrrrrrryrrrrrrryy"/>
        <phase duration="21" state="GGGggrrrGGggrrrrr"/>
        <phase duration="9" state="yyyggrrryyggrrrrr"/>
        <phase duration="6" state="rrrGGrrrrrGGrrrrr"/>
        <phase duration="9" state="rrryyrrrrryyrrrrr"/>
    </tlLogic>
    <tlLogic id="102723064" type="static" programID="0" offset="0">
        <phase duration="21" state="rrrrGGGggrrrGGGg"/>
        <phase duration="9" state="rrrryyyggrrryyyg"/>
        <phase duration="6" state="rrrrrrrGGrrrrrrG"/>
        <phase duration="9" state="rrrrrrryyrrrrrry"/>
        <phase duration="21" state="GGggrrrrrGGgrrrr"/>
        <phase duration="9" state="yyggrrrrryygrrrr"/>
        <phase duration="6" state="rrGGrrrrrrrGrrrr"/>
        <phase duration="9" state="rryyrrrrrrryrrrr"/>
    </tlLogic>
    <tlLogic id="102723065" type="static" programID="0" offset="0">
        <phase duration="28" state="GggGGGGrrr"/>
        <phase duration="9" state="yggyyyyrrr"/>
        <phase duration="6" state="rGGrrrrrrr"/>
        <phase duration="9" state="ryyrrrrrrr"/>
        <phase duration="29" state="rrrrrrGGGG"/>
        <phase duration="9" state="rrrrrryyyy"/>
    </tlLogic>
    <tlLogic id="1105879188" type="static" programID="0" offset="0">
        <phase duration="36" state="GGGGrrr"/>
        <phase duration="9" state="yyyyrrr"/>
        <phase duration="36" state="rrrGGGG"/>
        <phase duration="9" state="rrryyyy"/>
    </tlLogic>
    <tlLogic id="1105879277" type="static" programID="0" offset="0">
        <phase duration="28" state="GGGrrrrr"/>
        <phase duration="9" state="yyyrrrrr"/>
        <phase duration="29" state="rrrgGGGG"/>
        <phase duration="9" state="rrryyyyy"/>
        <phase duration="15" state="rrrrrrrr"/>
    </tlLogic>
    <tlLogic id="1105879560" type="static" programID="0" offset="0">
        <phase duration="28" state="rrrGggGGGggg"/>
        <phase duration="9" state="rrryyyyyyggg"/>
        <phase duration="6" state="rrrrrrrrrGGG"/>
        <phase duration="9" state="rrrrrrrrryyy"/>
        <phase duration="29" state="GGGrrrrrrrrr"/>
        <phase duration="9" state="yyyrrrrrrrrr"/>
    </tlLogic>
    <tlLogic id="1105879625" type="static" programID="0" offset="0">
        <phase duration="28" state="GGGgGGrrrggg"/>
        <phase duration="9" state="yyyyyyrrrggg"/>
        <phase duration="6" state="rrrrrrrrrGGG"/>
        <phase duration="9" state="rrrrrrrrryyy"/>
        <phase duration="29" state="rrrrrrGGGrrr"/>
        <phase duration="9" state="rrrrrryyyrrr"/>
    </tlLogic>
    <tlLogic id="1308131676" type="static" programID="0" offset="0">
        <phase duration="36" state="GGGGGrr"/>
        <phase duration="9" state="yyyyyrr"/>
        <phase duration="36" state="rrrrGGG"/>
        <phase duration="9" state="rrrryyy"/>
    </tlLogic>
    <tlLogic id="1308131704" type="static" programID="0" offset="0">
        <phase duration="36" state="GGGrrrrr"/>
        <phase duration="9" state="yyyrrrrr"/>
        <phase duration="36" state="rrrGGGGG"/>
        <phase duration="9" state="rrryyyyy"/>
    </tlLogic>
    <tlLogic id="1308131714" type="static" programID="0" offset="0">
        <phase duration="36" state="GGGGrrrrrr"/>
        <phase duration="9" state="yyyyrrrrrr"/>
        <phase duration="36" state="GrrrGGGGGG"/>
        <phase duration="9" state="yrrryyyyyy"/>
    </tlLogic>
    <tlLogic id="1308131758" type="static" programID="0" offset="0">
        <phase duration="36" state="GGGGrrr"/>
        <phase duration="9" state="yyyyrrr"/>
        <phase duration="36" state="rrrGGGG"/>
        <phase duration="9" state="rrryyyy"/>
    </tlLogic>
    <tlLogic id="1309410887" type="static" programID="0" offset="0">
        <phase duration="28" state="GGGrrrGGgg"/>
        <phase duration="9" state="yyyrrryygg"/>
        <phase duration="6" state="rrrrrrrrGG"/>
        <phase duration="9" state="rrrrrrrryy"/>
        <phase duration="29" state="rrrGGGrrrr"/>
        <phase duration="9" state="rrryyyrrrr"/>
    </tlLogic>
    <tlLogic id="1309410892" type="static" programID="0" offset="0">
        <phase duration="66" state="GgGGGG"/>
        <phase duration="9" state="ygyyyy"/>
        <phase duration="6" state="rGrrrr"/>
        <phase duration="9" state="ryrrrr"/>
    </tlLogic>
    <tlLogic id="1309410893" type="static" programID="0" offset="0">
        <phase duration="28" state="GGgGGGgrrrrr"/>
        <phase duration="9" state="yygyyygrrrrr"/>
        <phase duration="6" state="rrGrrrGrrrrr"/>
        <phase duration="9" state="rryrrryrrrrr"/>
        <phase duration="29" state="rrrrrrrGGGGG"/>
        <phase duration="9" state="rrrrrrryyyyy"/>
    </tlLogic>
    <tlLogic id="1309410902" type="static" programID="0" offset="0">
        <phase duration="21" state="GGgrrGGGrrr"/>
        <phase duration="9" state="yygrryyyrrr"/>
        <phase duration="6" state="rrGrrrrrrrr"/>
        <phase duration="9" state="rryrrrrrrrr"/>
        <phase duration="21" state="rrrGgrrrGGg"/>
        <phase duration="9" state="rrrygrrryyg"/>
        <phase duration="6" state="rrrrGrrrrrG"/>
        <phase duration="9" state="rrrryrrrrry"/>
    </tlLogic>
    <tlLogic id="1324291786" type="static" programID="0" offset="0">
        <phase duration="36" state="GGGrrr"/>
        <phase duration="9" state="yyyrrr"/>
        <phase duration="36" state="rrrGGG"/>
        <phase duration="9" state="rrryyy"/>
    </tlLogic>
    <tlLogic id="1324291788" type="static" programID="0" offset="0">
        <phase duration="36" state="GGGrrr"/>
        <phase duration="9" state="yyyrrr"/>
        <phase duration="36" state="rrrGGG"/>
        <phase duration="9" state="rrryyy"/>
    </tlLogic>
    <tlLogic id="1324291790" type="static" programID="0" offset="0">
        <phase duration="36" state="GGGrrr"/>
        <phase duration="9" state="yyyrrr"/>
        <phase duration="36" state="rrrGGG"/>
        <phase duration="9" state="rrryyy"/>
    </tlLogic>
    <tlLogic id="1324291791" type="static" programID="0" offset="0">
        <phase duration="36" state="GGGrr"/>
        <phase duration="9" state="yyyrr"/>
        <phase duration="36" state="GrrGG"/>
        <phase duration="9" state="yrryy"/>
    </tlLogic>
    <tlLogic id="1324295738" type="static" programID="0" offset="0">
        <phase duration="36" state="GGGrrG"/>
        <phase duration="9" state="yyyrry"/>
        <phase duration="36" state="rrrGGG"/>
        <phase duration="9" state="rrryyy"/>
    </tlLogic>
    <tlLogic id="1324295747" type="static" programID="0" offset="0">
        <phase duration="81" state="GGGG"/>
        <phase duration="9" state="yyyy"/>
    </tlLogic>
    <tlLogic id="1324295754" type="static" programID="0" offset="0">
        <phase duration="36" state="GGGrrr"/>
        <phase duration="9" state="yyyrrr"/>
        <phase duration="36" state="rrrGGG"/>
        <phase duration="9" state="rrryyy"/>
    </tlLogic>
    <tlLogic id="1324295760" type="static" programID="0" offset="0">
        <phase duration="36" state="GGrr"/>
        <phase duration="9" state="yyrr"/>
        <phase duration="36" state="rrGG"/>
        <phase duration="9" state="rryy"/>
    </tlLogic>
    <tlLogic id="1324298357" type="static" programID="0" offset="0">
        <phase duration="28" state="GGGgrrrrGgg"/>
        <phase duration="9" state="yyygrrrrygg"/>
        <phase duration="6" state="rrrGrrrrrGG"/>
        <phase duration="9" state="rrryrrrrryy"/>
        <phase duration="29" state="rrrrGGGGrrr"/>
        <phase duration="9" state="rrrryyyyrrr"/>
    </tlLogic>
    <tlLogic id="1324341001" type="static" programID="0" offset="0">
        <phase duration="36" state="GGGrrG"/>
        <phase duration="9" state="yyyrry"/>
        <phase duration="36" state="rrrGGG"/>
        <phase duration="9" state="rrryyy"/>
    </tlLogic>
    <tlLogic id="1324341002" type="static" programID="0" offset="0">
        <phase duration="36" state="GGGrrG"/>
        <phase duration="9" state="yyyrry"/>
        <phase duration="36" state="rrrGGG"/>
        <phase duration="9" state="rrryyy"/>
    </tlLogic>
    <tlLogic id="1324341003" type="static" programID="0" offset="0">
        <phase duration="36" state="GGGrr"/>
        <phase duration="9" state="yyyrr"/>
        <phase duration="36" state="GrrGG"/>
        <phase duration="9" state="yrryy"/>
    </tlLogic>
    <tlLogic id="1324341004" type="static" programID="0" offset="0">
        <phase duration="36" state="GGGrr"/>
        <phase duration="9" state="yyyrr"/>
        <phase duration="36" state="rrGGG"/>
        <phase duration="9" state="rryyy"/>
    </tlLogic>
    <tlLogic id="1337351531" type="static" programID="0" offset="0">
        <phase duration="28" state="GGGgrrrrGg"/>
        <phase duration="9" state="yyygrrrryg"/>
        <phase duration="6" state="rrrGrrrrrG"/>
        <phase duration="9" state="rrryrrrrry"/>
        <phase duration="29" state="rrrrGGGGrr"/>
        <phase duration="9" state="rrrryyyyrr"/>
    </tlLogic>
    <tlLogic id="1337351535" type="static" programID="0" offset="0">
        <phase duration="28" state="GGGGggggrrr"/>
        <phase duration="9" state="yyyyggggrrr"/>
        <phase duration="6" state="rrrrGGGGrrr"/>
        <phase duration="9" state="rrrryyyyrrr"/>
        <phase duration="29" state="GrrrrrrrGGg"/>
        <phase duration="9" state="yrrrrrrryyy"/>
    </tlLogic>
    <tlLogic id="1337351540" type="static" programID="0" offset="0">
        <phase duration="28" state="GGgGGGgrrrrrrrr"/>
        <phase duration="9" state="yygyyygrrrrrrrr"/>
        <phase duration="6" state="rrGrrrGrrrrrrrr"/>
        <phase duration="9" state="rryrrryrrrrrrrr"/>
        <phase duration="29" state="rrrrrrrGGGGGGGG"/>
        <phase duration="9" state="rrrrrrryyyyyyyy"/>
    </tlLogic>
    <tlLogic id="1468342226" type="static" programID="0" offset="0">
        <phase duration="28" state="GGGGrrrggg"/>
        <phase duration="9" state="yyyyrrrggg"/>
        <phase duration="6" state="rrrrrrrGGG"/>
        <phase duration="9" state="rrrrrrryyy"/>
        <phase duration="29" state="rrrrGGGrrr"/>
        <phase duration="9" state="rrrryyyrrr"/>
    </tlLogic>
    <tlLogic id="1468342232" type="static" programID="0" offset="0">
        <phase duration="36" state="GGGGGrrrG"/>
        <phase duration="9" state="yyyyyrrry"/>
        <phase duration="36" state="GrrrrGGGG"/>
        <phase duration="9" state="yrrrryyyy"/>
    </tlLogic>
    <tlLogic id="1655435350" type="static" programID="0" offset="0">
        <phase duration="36" state="GGGrr"/>
        <phase duration="9" state="yyyrr"/>
        <phase duration="36" state="GrrGG"/>
        <phase duration="9" state="yrryy"/>
    </tlLogic>
    <tlLogic id="1655435362" type="static" programID="0" offset="0">
        <phase duration="81" state="GGGG"/>
        <phase duration="9" state="yyyy"/>
    </tlLogic>
    <tlLogic id="1655436473" type="static" programID="0" offset="0">
        <phase duration="36" state="GGrr"/>
        <phase duration="9" state="yyrr"/>
        <phase duration="36" state="rrGG"/>
        <phase duration="9" state="rryy"/>
    </tlLogic>
    <tlLogic id="1655436476" type="static" programID="0" offset="0">
        <phase duration="36" state="GGGrrr"/>
        <phase duration="9" state="yyyrrr"/>
        <phase duration="36" state="rrrGGG"/>
        <phase duration="9" state="rrryyy"/>
    </tlLogic>
    <tlLogic id="1655443695" type="static" programID="0" offset="0">
        <phase duration="36" state="GGrr"/>
        <phase duration="9" state="yyrr"/>
        <phase duration="36" state="rrGG"/>
        <phase duration="9" state="rryy"/>
    </tlLogic>
    <tlLogic id="1655443697" type="static" programID="0" offset="0">
        <phase duration="81" state="GGGG"/>
        <phase duration="9" state="yyyy"/>
    </tlLogic>
    <tlLogic id="1655457007" type="static" programID="0" offset="0">
        <phase duration="28" state="GGGgrrrrGgg"/>
        <phase duration="9" state="yyygrrrrygg"/>
        <phase duration="6" state="rrrGrrrrrGG"/>
        <phase duration="9" state="rrryrrrrryy"/>
        <phase duration="29" state="rrrrGGGGrrr"/>
        <phase duration="9" state="rrrryyyyrrr"/>
    </tlLogic>
    <tlLogic id="1655457008" type="static" programID="0" offset="0">
        <phase duration="36" state="GGGGrrr"/>
        <phase duration="9" state="yyyyrrr"/>
        <phase duration="36" state="rrrrGGG"/>
        <phase duration="9" state="rrrryyy"/>
    </tlLogic>
    <tlLogic id="1655457009" type="static" programID="0" offset="0">
        <phase duration="28" state="GGGGrrrGgg"/>
        <phase duration="9" state="yyyyrrrygg"/>
        <phase duration="6" state="rrrrrrrrGG"/>
        <phase duration="9" state="rrrrrrrryy"/>
        <phase duration="29" state="rrrGGGGrrr"/>
        <phase duration="9" state="rrryyyyrrr"/>
    </tlLogic>
    <tlLogic id="1679535947" type="static" programID="0" offset="0">
        <phase duration="36" state="GGrr"/>
        <phase duration="9" state="yyrr"/>
        <phase duration="36" state="rrGG"/>
        <phase duration="9" state="rryy"/>
    </tlLogic>
    <tlLogic id="1699189847" type="static" programID="0" offset="0">
        <phase duration="28" state="GggGGGgrrrr"/>
        <phase duration="9" state="yggyyygrrrr"/>
        <phase duration="6" state="rGGrrrGrrrr"/>
        <phase duration="9" state="ryyrrryrrrr"/>
        <phase duration="29" state="rrrrrrrGGGG"/>
        <phase duration="9" state="rrrrrrryyyy"/>
    </tlLogic>
    <tlLogic id="1764458381" type="static" programID="0" offset="0">
        <phase duration="21" state="GGGgrrrGGGggrrrr"/>
        <phase duration="9" state="yyygrrryyyggrrrr"/>
        <phase duration="6" state="rrrGrrrrrrGGrrrr"/>
        <phase duration="9" state="rrryrrrrrryyrrrr"/>
        <phase duration="21" state="rrrrGGgrrrrrGGgg"/>
        <phase duration="9" state="rrrryygrrrrryygg"/>
        <phase duration="6" state="rrrrrrGrrrrrrrGG"/>
        <phase duration="9" state="rrrrrryrrrrrrryy"/>
    </tlLogic>
    <tlLogic id="1888714372" type="static" programID="0" offset="0">
        <phase duration="28" state="GGGrrrGGgg"/>
        <phase duration="9" state="yyyrrryygg"/>
        <phase duration="6" state="rrrrrrrrGG"/>
        <phase duration="9" state="rrrrrrrryy"/>
        <phase duration="29" state="rrrGGGrrrr"/>
        <phase duration="9" state="rrryyyrrrr"/>
    </tlLogic>
    <tlLogic id="2291929233" type="static" programID="0" offset="0">
        <phase duration="36" state="GGGrrG"/>
        <phase duration="9" state="yyyrry"/>
        <phase duration="36" state="rrrGGG"/>
        <phase duration="9" state="rrryyy"/>
    </tlLogic>
    <tlLogic id="2291929237" type="static" programID="0" offset="0">
        <phase duration="36" state="GGGrrr"/>
        <phase duration="9" state="yyyrrr"/>
        <phase duration="36" state="rrrGGG"/>
        <phase duration="9" state="rrryyy"/>
    </tlLogic>
    <tlLogic id="2291929239" type="static" programID="0" offset="0">
        <phase duration="36" state="GGGrrr"/>
        <phase duration="9" state="yyyrrr"/>
        <phase duration="36" state="rrrGGG"/>
        <phase duration="9" state="rrryyy"/>
    </tlLogic>
    <tlLogic id="2291929241" type="static" programID="0" offset="0">
        <phase duration="36" state="GGGrrr"/>
        <phase duration="9" state="yyyrrr"/>
        <phase duration="36" state="rrrGGG"/>
        <phase duration="9" state="rrryyy"/>
    </tlLogic>
    <tlLogic id="2291929247" type="static" programID="0" offset="0">
        <phase duration="28" state="GGGGrrrGgg"/>
        <phase duration="9" state="yyyyrrrygg"/>
        <phase duration="6" state="rrrrrrrrGG"/>
        <phase duration="9" state="rrrrrrrryy"/>
        <phase duration="29" state="rrrGGGGrrr"/>
        <phase duration="9" state="rrryyyyrrr"/>
    </tlLogic>
    <tlLogic id="2291929257" type="static" programID="0" offset="0">
        <phase duration="28" state="GGGGrrrGgg"/>
        <phase duration="9" state="yyyyrrrygg"/>
        <phase duration="6" state="rrrrrrrrGG"/>
        <phase duration="9" state="rrrrrrrryy"/>
        <phase duration="29" state="rrrGGGGrrr"/>
        <phase duration="9" state="rrryyyyrrr"/>
    </tlLogic>
    <tlLogic id="2291929261" type="static" programID="0" offset="0">
        <phase duration="28" state="GGGGrrrGgg"/>
        <phase duration="9" state="yyyyrrrygg"/>
        <phase duration="6" state="rrrrrrrrGG"/>
        <phase duration="9" state="rrrrrrrryy"/>
        <phase duration="29" state="rrrGGGGrrr"/>
        <phase duration="9" state="rrryyyyrrr"/>
    </tlLogic>
    <tlLogic id="2291929269" type="static" programID="0" offset="0">
        <phase duration="28" state="rrrGggGGGg"/>
        <phase duration="9" state="rrryggyyyg"/>
        <phase duration="6" state="rrrrGGrrrG"/>
        <phase duration="9" state="rrrryyrrry"/>
        <phase duration="29" state="GGGrrrrrrr"/>
        <phase duration="9" state="yyyrrrrrrr"/>
    </tlLogic>
    <tlLogic id="2294339314" type="static" programID="0" offset="0">
        <phase duration="81" state="GGGGG"/>
        <phase duration="9" state="yyyyy"/>
    </tlLogic>
    <tlLogic id="2392243937" type="static" programID="0" offset="0">
        <phase duration="36" state="GGGGrrr"/>
        <phase duration="9" state="yyyyrrr"/>
        <phase duration="36" state="rrrGGGG"/>
        <phase duration="9" state="rrryyyy"/>
    </tlLogic>
    <tlLogic id="2396494577" type="static" programID="0" offset="0">
        <phase duration="36" state="GGGGrrrG"/>
        <phase duration="9" state="yyyyrrry"/>
        <phase duration="36" state="rrrrGGGG"/>
        <phase duration="9" state="rrrryyyy"/>
    </tlLogic>
    <tlLogic id="2480840763" type="static" programID="0" offset="0">
        <phase duration="28" state="GGGGrrrrGggg"/>
        <phase duration="9" state="yyyyrrrryggg"/>
        <phase duration="6" state="rrrrrrrrrGGG"/>
        <phase duration="9" state="rrrrrrrrryyy"/>
        <phase duration="29" state="rrrGGGGGrrrr"/>
        <phase duration="9" state="rrryyyyyrrrr"/>
    </tlLogic>
    <tlLogic id="2480840764" type="static" programID="0" offset="0">
        <phase duration="28" state="rrrrrGgggGGGg"/>
        <phase duration="9" state="rrrrrygggyyyg"/>
        <phase duration="6" state="rrrrrrGGGrrrG"/>
        <phase duration="9" state="rrrrrryyyrrry"/>
        <phase duration="29" state="GGGGGrrrrrrrr"/>
        <phase duration="9" state="yyyyyrrrrrrrr"/>
    </tlLogic>
    <tlLogic id="250278943" type="static" programID="0" offset="0">
        <phase duration="28" state="GggGGgrrrr"/>
        <phase duration="9" state="yggyygrrrr"/>
        <phase duration="6" state="rGGrrGrrrr"/>
        <phase duration="9" state="ryyrryrrrr"/>
        <phase duration="29" state="rrrrrrGGGG"/>
        <phase duration="9" state="rrrrrryyyy"/>
    </tlLogic>
    <tlLogic id="250755791" type="static" programID="0" offset="0">
        <phase duration="28" state="GGggrrrGGG"/>
        <phase duration="9" state="yyggrrryyy"/>
        <phase duration="6" state="rrGGrrrrrr"/>
        <phase duration="9" state="rryyrrrrrr"/>
        <phase duration="29" state="rrrrGGgGrr"/>
        <phase duration="9" state="rrrryyyyrr"/>
    </tlLogic>
    <tlLogic id="250755793" type="static" programID="0" offset="0">
        <phase duration="28" state="GGGGrrrGgg"/>
        <phase duration="9" state="yyyyrrrygg"/>
        <phase duration="6" state="rrrrrrrrGG"/>
        <phase duration="9" state="rrrrrrrryy"/>
        <phase duration="29" state="rrrGGGGrrr"/>
        <phase duration="9" state="rrryyyyrrr"/>
    </tlLogic>
    <tlLogic id="250755794" type="static" programID="0" offset="0">
        <phase duration="28" state="rrrGGGgGGgg"/>
        <phase duration="9" state="rrryyygyygg"/>
        <phase duration="6" state="rrrrrrGrrGG"/>
        <phase duration="9" state="rrrrrryrryy"/>
        <phase duration="29" state="GGGGGrrrrrr"/>
        <phase duration="9" state="yyyyyrrrrrr"/>
    </tlLogic>
    <tlLogic id="250755798" type="static" programID="0" offset="0">
        <phase duration="28" state="GGGggGGGggrrrr"/>
        <phase duration="9" state="yyyggyyyggrrrr"/>
        <phase duration="6" state="rrrGGrrrGGrrrr"/>
        <phase duration="9" state="rrryyrrryyrrrr"/>
        <phase duration="29" state="GrrrrrrrrrGGGg"/>
        <phase duration="9" state="yrrrrrrrrryyyy"/>
    </tlLogic>
    <tlLogic id="250755823" type="static" programID="0" offset="0">
        <phase duration="36" state="GGGrrr"/>
        <phase duration="9" state="yyyrrr"/>
        <phase duration="36" state="rrrGGG"/>
        <phase duration="9" state="rrryyy"/>
    </tlLogic>
    <tlLogic id="2518161241" type="static" programID="0" offset="0">
        <phase duration="28" state="GGrrrrGgg"/>
        <phase duration="9" state="yyrrrrygg"/>
        <phase duration="6" state="rrrrrrrGG"/>
        <phase duration="9" state="rrrrrrryy"/>
        <phase duration="29" state="rrGGGGrrr"/>
        <phase duration="9" state="rryyyyrrr"/>
    </tlLogic>
    <tlLogic id="253960130" type="static" programID="0" offset="0">
        <phase duration="28" state="GggGGgrrrrr"/>
        <phase duration="9" state="yggyygrrrrr"/>
        <phase duration="6" state="rGGrrGrrrrr"/>
        <phase duration="9" state="ryyrryrrrrr"/>
        <phase duration="29" state="rrrrrrGGGGG"/>
        <phase duration="9" state="rrrrrryyyyy"/>
    </tlLogic>
    <tlLogic id="253960191" type="static" programID="0" offset="0">
        <phase duration="28" state="gggGGGGGrrr"/>
        <phase duration="9" state="gggyyyyyrrr"/>
        <phase duration="6" state="GGGrrrrrrrr"/>
        <phase duration="9" state="yyyrrrrrrrr"/>
        <phase duration="29" state="rrrGrrrrGGG"/>
        <phase duration="9" state="rrryrrrryyy"/>
    </tlLogic>
    <tlLogic id="253960200" type="static" programID="0" offset="0">
        <phase duration="66" state="GGGGGgg"/>
        <phase duration="9" state="yyyyygg"/>
        <phase duration="6" state="rrrrrGG"/>
        <phase duration="9" state="rrrrryy"/>
    </tlLogic>
    <tlLogic id="253960280" type="static" programID="0" offset="0">
        <phase duration="28" state="GggGGGgrrrrrr"/>
        <phase duration="9" state="yggyyygrrrrrr"/>
        <phase duration="6" state="rGGrrrGrrrrrr"/>
        <phase duration="9" state="ryyrrryrrrrrr"/>
        <phase duration="29" state="rrrrrrrGGGGGG"/>
        <phase duration="9" state="rrrrrrryyyyyy"/>
    </tlLogic>
    <tlLogic id="253960289" type="static" programID="0" offset="0">
        <phase duration="28" state="GGgrrrrrrGgg"/>
        <phase duration="9" state="yygrrrrrrygg"/>
        <phase duration="6" state="rrGrrrrrrrGG"/>
        <phase duration="9" state="rryrrrrrrryy"/>
        <phase duration="29" state="rrrGGGGGGrrr"/>
        <phase duration="9" state="rrryyyyyyrrr"/>
    </tlLogic>
    <tlLogic id="256181097" type="static" programID="0" offset="0">
        <phase duration="21" state="GGGgrrrrGGGgrrrr"/>
        <phase duration="9" state="yyygrrrryyygrrrr"/>
        <phase duration="6" state="rrrGrrrrrrrGrrrr"/>
        <phase duration="9" state="rrryrrrrrrryrrrr"/>
        <phase duration="21" state="rrrrGGggrrrrGGgg"/>
        <phase duration="9" state="rrrryyggrrrryygg"/>
        <phase duration="6" state="rrrrrrGGrrrrrrGG"/>
        <phase duration="9" state="rrrrrryyrrrrrryy"/>
    </tlLogic>
    <tlLogic id="256181100" type="static" programID="0" offset="0">