<?xml version="1.0" encoding="UTF-8"?>

<!-- generated on Sex  1 Fev 15:12:26 2019 by Netedit Version 0.25.0
<?xml version="1.0" encoding="UTF-8"?>

<configuration xmlns:xsi="http://www.w3.org/2001/XMLSchema-instance" xsi:noNamespaceSchemaLocation="http://sumo.dlr.de/xsd/netedit.exeConfiguration.xsd">

    <input>
        <sumo-net-file value="/Users/AllanMSouza/Dropbox/PhD/TMS%20Implementation/TITS_SI/codes/Proposal/scenario/Chicago/sim.net.xml"/>
    </input>

    <output>
        <output-file value="/Users/AllanMSouza/Dropbox/PhD/TMS%20Implementation/TITS_SI/codes/Proposal/scenario/Chicago/sim.net.xml"/>
    </output>

    <processing>
        <no-turnarounds value="true"/>
        <offset.disable-normalization value="true"/>
        <lefthand value="false"/>
        <junctions.corner-detail value="0"/>
    </processing>

</configuration>
-->

<net version="0.25" xmlns:xsi="http://www.w3.org/2001/XMLSchema-instance" xsi:noNamespaceSchemaLocation="http://sumo.dlr.de/xsd/net_file.xsd">

    <location netOffset="-444086.89,-4631843.26" convBoundary="0.00,0.00,5399.54,10917.65" origBoundary="-87.673591,41.836822,-87.608401,41.934964" projParameter="+proj=utm +zone=16 +ellps=WGS84 +datum=WGS84 +units=m +no_defs"/>

    <edge id=":102680962_0" function="internal">
        <lane id=":102680962_0_0" index="0" disallow="tram rail_urban rail rail_electric ship" speed="27.78" length="3.94" shape="2550.97,8258.40 2547.56,8257.86"/>
        <lane id=":102680962_0_1" index="1" disallow="tram rail_urban rail rail_electric ship" speed="27.78" length="3.94" shape="2551.96,8255.25 2547.59,8254.56"/>
    </edge>
    <edge id=":102680962_2" function="internal">
        <lane id=":102680962_2_0" index="0" disallow="tram rail_urban rail rail_electric ship" speed="27.78" length="4.76" shape="2547.65,8244.90 2551.11,8247.97"/>
        <lane id=":102680962_2_1" index="1" disallow="tram rail_urban rail rail_electric ship" speed="27.78" length="4.76" shape="2547.63,8248.23 2551.48,8251.25"/>
    </edge>
    <edge id=":102680962_4" function="internal">
        <lane id=":102680962_4_0" index="0" disallow="tram rail_urban rail rail_electric ship" speed="27.78" length="3.01" shape="2547.61,8251.55 2547.59,8254.56"/>
    </edge>
    <edge id=":102680965_0" function="internal">
        <lane id=":102680965_0_0" index="0" disallow="tram rail_urban rail rail_electric ship" speed="27.78" length="9.80" shape="3401.97,8270.39 3392.33,8270.36"/>
        <lane id=":102680965_0_1" index="1" disallow="tram rail_urban rail rail_electric ship" speed="27.78" length="9.80" shape="3402.14,8267.09 3392.19,8267.07"/>
    </edge>
    <edge id=":102680965_2" function="internal">
        <lane id=":102680965_2_0" index="0" disallow="tram rail_urban rail rail_electric ship" speed="27.78" length="11.35" shape="3402.14,8267.09 3400.70,8266.39 3399.69,8264.47 3399.13,8261.32 3398.99,8256.94"/>
    </edge>
    <edge id=":102680965_3" function="internal">
        <lane id=":102680965_3_0" index="0" disallow="tram rail_urban rail rail_electric ship" speed="27.78" length="4.82" shape="3402.14,8267.09 3400.94,8266.21 3400.57,8265.36 3401.03,8264.56 3402.30,8263.80"/>
    </edge>
    <edge id=":102680965_4" function="internal">
        <lane id=":102680965_4_0" index="0" disallow="tram rail_urban rail rail_electric ship" speed="27.78" length="8.15" shape="3391.88,8259.77 3393.53,8259.71 3394.71,8259.21 3395.44,8258.27 3395.69,8256.88"/>
        <lane id=":102680965_4_1" index="1" disallow="tram rail_urban rail rail_electric ship" speed="27.78" length="8.15" shape="3392.02,8263.10 3395.03,8262.93 3397.19,8261.85 3398.51,8259.85 3398.99,8256.94"/>
    </edge>
    <edge id=":102680965_6" function="internal">
        <lane id=":102680965_6_0" index="0" disallow="tram rail_urban rail rail_electric ship" speed="27.78" length="10.93" shape="3392.02,8263.10 3395.16,8262.85 3397.24,8261.87 3399.32,8260.86 3402.47,8260.50"/>
    </edge>
    <edge id=":102680965_7" function="internal">
        <lane id=":102680965_7_0" index="0" disallow="tram rail_urban rail rail_electric ship" speed="27.78" length="5.06" shape="3395.48,8273.41 3395.29,8272.02 3394.71,8271.05 3393.72,8270.50 3392.33,8270.36"/>
    </edge>
    <edge id=":102680965_8" function="internal">
        <lane id=":102680965_8_0" index="0" disallow="tram rail_urban rail rail_electric ship" speed="27.78" length="16.51" shape="3395.48,8273.41 3395.52,8268.50 3395.56,8265.14 3395.61,8261.79 3395.69,8256.88"/>
        <lane id=":102680965_8_1" index="1" disallow="tram rail_urban rail rail_electric ship" speed="27.78" length="16.51" shape="3398.78,8273.44 3398.82,8268.54 3398.86,8265.19 3398.91,8261.84 3398.99,8256.94"/>
    </edge>
    <edge id=":102680965_10" function="internal">
        <lane id=":102680965_10_0" index="0" disallow="tram rail_urban rail rail_electric ship" speed="27.78" length="11.10" shape="3398.78,8273.44 3399.03,8269.15 3399.70,8266.12 3400.79,8264.33 3402.30,8263.80"/>
    </edge>
    <edge id=":102686390_0" function="internal">
        <lane id=":102686390_0_0" index="0" disallow="tram rail_urban rail rail_electric ship" speed="20.59" length="8.38" shape="2115.33,10668.43 2112.52,10668.57 2110.46,10669.21 2109.16,10670.32 2108.61,10671.93"/>
    </edge>
    <edge id=":102686390_1" function="internal">
        <lane id=":102686390_1_0" index="0" disallow="tram rail_urban rail rail_electric ship" speed="13.41" length="16.23" shape="2115.33,10668.43 2111.39,10668.32 2107.22,10668.22 2103.05,10668.13 2099.11,10668.06"/>
    </edge>
    <edge id=":102686390_2" function="internal">
        <lane id=":102686390_2_0" index="0" disallow="tram rail_urban rail rail_electric ship" speed="20.59" length="7.46" shape="2115.33,10668.43 2111.16,10667.90 2108.18,10666.59"/>
    </edge>
    <edge id=":102686390_14" function="internal">
        <lane id=":102686390_14_0" index="0" speed="20.59" length="5.67" shape="2108.18,10666.59 2106.38,10664.51 2105.77,10661.66"/>
    </edge>
    <edge id=":102686390_3" function="internal">
        <lane id=":102686390_3_0" index="0" disallow="tram rail_urban rail rail_electric ship" speed="20.59" length="5.27" shape="2112.37,10661.62 2112.57,10663.12 2113.15,10664.21 2114.10,10664.88 2115.43,10665.13"/>
    </edge>
    <edge id=":102686390_4" function="internal">
        <lane id=":102686390_4_0" index="0" disallow="tram rail_urban rail rail_electric ship" speed="27.78" length="11.13" shape="2112.37,10661.62 2111.86,10664.84 2110.68,10666.96 2109.40,10668.99 2108.61,10671.93"/>
    </edge>
    <edge id=":102686390_5" function="internal">
        <lane id=":102686390_5_0" index="0" disallow="tram rail_urban rail rail_electric ship" speed="20.59" length="4.82" shape="2109.07,10661.64 2108.46,10664.51 2107.18,10665.90"/>
    </edge>
    <edge id=":102686390_15" function="internal">
        <lane id=":102686390_15_0" index="0" speed="20.59" length="8.58" shape="2107.18,10665.90 2106.60,10666.53 2103.48,10667.72 2099.11,10668.06"/>
    </edge>
    <edge id=":102686390_6" function="internal">
        <lane id=":102686390_6_0" index="0" disallow="tram rail_urban rail rail_electric ship" speed="20.59" length="5.18" shape="2099.16,10664.76 2100.61,10664.59 2101.65,10664.02 2102.27,10663.05 2102.47,10661.68"/>
    </edge>
    <edge id=":102686390_7" function="internal">
        <lane id=":102686390_7_0" index="0" disallow="tram rail_urban rail rail_electric ship" speed="13.41" length="16.28" shape="2099.16,10664.76 2103.11,10664.83 2107.30,10664.92 2111.48,10665.02 2115.43,10665.13"/>
    </edge>
    <edge id=":102686390_8" function="internal">
        <lane id=":102686390_8_0" index="0" disallow="tram rail_urban rail rail_electric ship" speed="20.59" length="7.73" shape="2099.16,10664.76 2103.54,10665.27 2106.57,10666.63"/>
    </edge>
    <edge id=":102686390_16" function="internal">
        <lane id=":102686390_16_0" index="0" speed="20.59" length="5.89" shape="2106.57,10666.63 2108.26,10668.85 2108.61,10671.93"/>
    </edge>
    <edge id=":102686390_9" function="internal">
        <lane id=":102686390_9_0" index="0" disallow="tram rail_urban rail rail_electric ship" speed="20.59" length="5.09" shape="2102.04,10671.33 2101.97,10669.92 2101.46,10668.90 2100.50,10668.29 2099.11,10668.06"/>
    </edge>
    <edge id=":102686390_10" function="internal">
        <lane id=":102686390_10_0" index="0" disallow="tram rail_urban rail rail_electric ship" speed="27.78" length="9.82" shape="2102.04,10671.33 2102.47,10661.68"/>
        <lane id=":102686390_10_1" index="1" disallow="tram rail_urban rail rail_electric ship" speed="27.78" length="9.82" shape="2105.33,10671.63 2105.77,10661.66"/>
    </edge>
    <edge id=":102686390_12" function="internal">
        <lane id=":102686390_12_0" index="0" disallow="tram rail_urban rail rail_electric ship" speed="20.59" length="7.12" shape="2105.33,10671.63 2106.19,10668.68 2108.16,10666.61 2109.28,10666.18"/>
    </edge>
    <edge id=":102686390_13" function="internal">
        <lane id=":102686390_13_0" index="0" disallow="tram rail_urban rail rail_electric ship" speed="27.78" length="2.73" shape="2105.33,10671.63 2106.26,10670.47 2107.12,10670.13 2107.39,10670.30"/>
    </edge>
    <edge id=":102686390_17" function="internal">
        <lane id=":102686390_17_0" index="0" speed="20.59" length="6.31" shape="2109.28,10666.18 2111.24,10665.43 2115.43,10665.13"/>
    </edge>
    <edge id=":102686390_18" function="internal">
        <lane id=":102686390_18_0" index="0" speed="27.78" length="2.09" shape="2107.39,10670.30 2107.90,10670.62 2108.61,10671.93"/>
    </edge>
    <edge id=":102705584_0" function="internal">
        <lane id=":102705584_0_0" index="0" disallow="tram rail_urban rail rail_electric ship" speed="27.78" length="22.16" shape="572.00,9030.22 569.57,9036.00 567.43,9040.30 565.00,9044.45 561.75,9049.83"/>
    </edge>
    <edge id=":102705584_1" function="internal">
        <lane id=":102705584_1_0" index="0" disallow="tram rail_urban rail rail_electric ship" speed="27.78" length="5.57" shape="568.92,9029.01 566.49,9032.42 565.27,9033.08"/>
    </edge>
    <edge id=":102705584_8" function="internal">
        <lane id=":102705584_8_0" index="0" speed="27.78" length="17.21" shape="565.27,9033.08 562.28,9034.72 556.32,9035.90 548.60,9035.97"/>
    </edge>
    <edge id=":102705584_2" function="internal">
        <lane id=":102705584_2_0" index="0" disallow="tram rail_urban rail rail_electric ship" speed="27.78" length="17.28" shape="548.97,9029.38 555.99,9029.62 561.15,9029.44 564.43,9028.83 565.85,9027.81"/>
    </edge>
    <edge id=":102705584_3" function="internal">
        <lane id=":102705584_3_0" index="0" disallow="tram rail_urban rail rail_electric ship" speed="27.78" length="24.64" shape="548.78,9032.67 556.45,9034.04 560.69,9037.07 561.51,9041.77 558.92,9048.13"/>
    </edge>
    <edge id=":102705584_4" function="internal">
        <lane id=":102705584_4_0" index="0" disallow="tram rail_urban rail rail_electric ship" speed="27.78" length="2.68" shape="548.78,9032.67 549.97,9033.57 550.34,9034.41 550.20,9034.65"/>
    </edge>
    <edge id=":102705584_9" function="internal">
        <lane id=":102705584_9_0" index="0" speed="27.78" length="2.14" shape="550.20,9034.65 549.88,9035.21 548.60,9035.97"/>
    </edge>
    <edge id=":102705584_5" function="internal">
        <lane id=":102705584_5_0" index="0" disallow="tram rail_urban rail rail_electric ship" speed="27.78" length="9.51" shape="550.42,9043.05 551.09,9041.48 550.98,9040.33 550.09,9039.59 548.41,9039.26"/>
        <lane id=":102705584_5_1" index="1" disallow="tram rail_urban rail rail_electric ship" speed="27.78" length="9.51" shape="553.25,9044.75 554.81,9041.11 554.55,9038.43 552.48,9036.72 548.60,9035.97"/>
    </edge>
    <edge id=":102705584_7" function="internal">
        <lane id=":102705584_7_0" index="0" disallow="tram rail_urban rail rail_electric ship" speed="27.78" length="21.06" shape="556.09,9046.44 559.63,9040.37 562.31,9035.48 564.31,9031.41 565.85,9027.81"/>
    </edge>
    <edge id=":102708200_0" function="internal">
        <lane id=":102708200_0_0" index="0" disallow="tram rail_urban rail rail_electric ship" speed="27.78" length="7.97" shape="2864.58,7461.69 2857.82,7465.90"/>
    </edge>
    <edge id=":102708200_1" function="internal">
        <lane id=":102708200_1_0" index="0" disallow="tram rail_urban rail rail_electric ship" speed="27.78" length="16.81" shape="2864.58,7461.69 2859.95,7460.62 2857.15,7458.27 2854.35,7455.90 2849.73,7454.75"/>
        <lane id=":102708200_1_1" index="1" disallow="tram rail_urban rail rail_electric ship" speed="27.78" length="16.81" shape="2864.58,7458.39 2859.97,7457.32 2857.19,7454.97 2854.40,7452.60 2849.79,7451.45"/>
    </edge>
    <edge id=":102708200_3" function="internal">
        <lane id=":102708200_3_0" index="0" disallow="tram rail_urban rail rail_electric ship" speed="27.78" length="15.22" shape="2849.91,7444.85 2854.70,7445.48 2858.22,7446.72 2861.26,7447.93 2864.60,7448.49"/>
    </edge>
    <edge id=":102708200_4" function="internal">
        <lane id=":102708200_4_0" index="0" disallow="tram rail_urban rail rail_electric ship" speed="27.78" length="17.50" shape="2849.85,7448.15 2858.51,7449.26 2862.36,7452.19 2861.57,7456.04"/>
    </edge>
    <edge id=":102708200_9" function="internal">
        <lane id=":102708200_9_0" index="0" speed="27.78" length="9.62" shape="2861.57,7456.04 2861.39,7456.92 2855.60,7463.46"/>
    </edge>
    <edge id=":102708200_5" function="internal">
        <lane id=":102708200_5_0" index="0" disallow="tram rail_urban rail rail_electric ship" speed="27.78" length="11.86" shape="2851.16,7458.57 2852.61,7456.94 2852.85,7455.76 2851.89,7455.03 2849.73,7454.75"/>
        <lane id=":102708200_5_1" index="1" disallow="tram rail_urban rail rail_electric ship" speed="27.78" length="11.86" shape="2853.38,7461.01 2857.00,7456.93 2857.60,7453.97 2855.20,7452.15 2849.79,7451.45"/>
    </edge>
    <edge id=":102708200_7" function="internal">
        <lane id=":102708200_7_0" index="0" disallow="tram rail_urban rail rail_electric ship" speed="27.78" length="17.28" shape="2853.38,7461.01 2857.06,7456.67 2859.45,7452.63 2861.61,7449.65 2864.60,7448.49"/>
    </edge>
    <edge id=":102708200_8" function="internal">
        <lane id=":102708200_8_0" index="0" disallow="tram rail_urban rail rail_electric ship" speed="27.78" length="2.41" shape="2853.38,7461.01 2854.85,7460.79 2855.71,7461.13"/>
    </edge>
    <edge id=":102708200_10" function="internal">
        <lane id=":102708200_10_0" index="0" speed="27.78" length="2.41" shape="2855.71,7461.13 2855.96,7462.01 2855.60,7463.46"/>
    </edge>
    <edge id=":102708202_0" function="internal">
        <lane id=":102708202_0_0" index="0" disallow="tram rail_urban rail rail_electric ship" speed="27.78" length="34.43" shape="2166.74,8135.79 2161.40,8142.06 2156.63,8149.80 2153.16,8158.12 2151.74,8166.09"/>
    </edge>
    <edge id=":102708202_1" function="internal">
        <lane id=":102708202_1_0" index="0" disallow="tram rail_urban rail rail_electric ship" speed="27.78" length="40.17" shape="2166.74,8135.79 2159.88,8141.75 2151.25,8148.58 2142.63,8155.42 2135.79,8161.39"/>
    </edge>
    <edge id=":102708202_2" function="internal">
        <lane id=":102708202_2_0" index="0" disallow="tram rail_urban rail rail_electric ship" speed="27.78" length="18.68" shape="2166.74,8135.79 2157.72,8142.77 2151.31,8143.63 2147.52,8138.38 2146.33,8127.02"/>
        <lane id=":102708202_2_1" index="1" disallow="tram rail_urban rail rail_electric ship" speed="27.78" length="18.68" shape="2164.46,8133.41 2163.19,8134.39"/>
    </edge>
    <edge id=":102708202_4" function="internal">
        <lane id=":102708202_4_0" index="0" disallow="tram rail_urban rail rail_electric ship" speed="27.78" length="2.30" shape="2164.46,8133.41 2162.99,8133.66 2162.23,8133.39"/>
    </edge>
    <edge id=":102708202_5" function="internal">
        <lane id=":102708202_5_0" index="0" disallow="tram rail_urban rail rail_electric ship" speed="27.78" length="3.32" shape="2164.46,8133.41 2162.17,8131.01"/>
    </edge>
    <edge id=":102708202_6" function="internal">
        <lane id=":102708202_6_0" index="0" disallow="tram rail_urban rail rail_electric ship" speed="27.78" length="3.31" shape="2164.46,8133.41 2162.17,8131.01"/>
    </edge>
    <edge id=":102708202_38" function="internal">
        <lane id=":102708202_38_0" index="0" speed="27.78" length="24.37" shape="2163.19,8134.39 2157.90,8138.47 2153.25,8139.10 2150.49,8135.30 2149.63,8127.05"/>
    </edge>
    <edge id=":102708202_39" function="internal">
        <lane id=":102708202_39_0" index="0" speed="27.78" length="2.52" shape="2162.23,8133.39 2162.12,8133.35 2161.85,8132.47 2162.18,8131.02"/>
    </edge>
    <edge id=":102708202_7" function="internal">
        <lane id=":102708202_7_0" index="0" disallow="tram rail_urban rail rail_electric ship" speed="27.78" length="6.40" shape="2156.23,8127.11 2156.44,8129.13 2157.13,8130.05 2158.28,8129.89 2159.90,8128.63"/>
    </edge>
    <edge id=":102708202_8" function="internal">
        <lane id=":102708202_8_0" index="0" disallow="tram rail_urban rail rail_electric ship" speed="27.78" length="6.58" shape="2156.23,8127.11 2156.45,8129.19 2157.15,8130.16 2158.34,8130.01 2160.01,8128.74"/>
    </edge>
    <edge id=":102708202_9" function="internal">
        <lane id=":102708202_9_0" index="0" disallow="tram rail_urban rail rail_electric ship" speed="27.78" length="6.39" shape="2156.23,8127.11 2156.44,8129.12 2157.12,8130.05 2158.28,8129.88 2159.89,8128.62"/>
    </edge>
    <edge id=":102708202_10" function="internal">
        <lane id=":102708202_10_0" index="0" disallow="tram rail_urban rail rail_electric ship" speed="27.78" length="39.03" shape="2152.93,8127.08 2152.74,8135.99 2152.38,8146.58 2152.00,8157.18 2151.74,8166.09"/>
    </edge>
    <edge id=":102708202_11" function="internal">
        <lane id=":102708202_11_0" index="0" disallow="tram rail_urban rail rail_electric ship" speed="27.78" length="15.50" shape="2152.93,8127.08 2151.80,8135.85 2149.47,8142.08"/>
    </edge>
    <edge id=":102708202_12" function="internal">
        <lane id=":102708202_12_0" index="0" disallow="tram rail_urban rail rail_electric ship" speed="27.78" length="2.59" shape="2152.93,8127.08 2152.09,8128.31 2151.27,8128.71 2151.10,8128.63"/>
    </edge>
    <edge id=":102708202_40" function="internal">
        <lane id=":102708202_40_0" index="0" speed="27.78" length="23.83" shape="2149.47,8142.08 2148.57,8144.49 2143.23,8153.00 2135.79,8161.39"/>
    </edge>
    <edge id=":102708202_41" function="internal">
        <lane id=":102708202_41_0" index="0" speed="27.78" length="2.22" shape="2151.10,8128.63 2150.44,8128.29 2149.63,8127.05"/>
    </edge>
    <edge id=":102708202_13" function="internal">
        <lane id=":102708202_13_0" index="0" disallow="tram rail_urban rail rail_electric ship" speed="27.78" length="34.14" shape="2131.17,8156.67 2137.75,8149.30 2142.48,8141.90 2145.34,8134.47 2146.33,8127.02"/>
    </edge>
    <edge id=":102708202_14" function="internal">
        <lane id=":102708202_14_0" index="0" disallow="tram rail_urban rail rail_electric ship" speed="27.78" length="40.15" shape="2131.17,8156.67 2137.66,8150.32 2145.52,8142.64 2153.39,8134.97 2159.90,8128.63"/>
    </edge>
    <edge id=":102708202_15" function="internal">
        <lane id=":102708202_15_0" index="0" disallow="tram rail_urban rail rail_electric ship" speed="27.78" length="40.27" shape="2133.48,8159.03 2139.62,8152.32 2146.71,8143.85 2153.81,8135.40 2160.01,8128.74"/>
    </edge>
    <edge id=":102708202_16" function="internal">
        <lane id=":102708202_16_0" index="0" disallow="tram rail_urban rail rail_electric ship" speed="27.78" length="40.29" shape="2133.48,8159.03 2139.61,8152.31 2146.68,8143.82 2153.75,8135.33 2159.89,8128.62"/>
    </edge>
    <edge id=":102708202_17" function="internal">
        <lane id=":102708202_17_0" index="0" disallow="tram rail_urban rail rail_electric ship" speed="27.78" length="15.49" shape="2133.48,8159.03 2141.66,8152.57 2146.66,8151.73"/>
    </edge>
    <edge id=":102708202_42" function="internal">
        <lane id=":102708202_42_0" index="0" speed="27.78" length="16.44" shape="2146.66,8151.73 2147.43,8151.60 2150.79,8156.10 2151.74,8166.09"/>
    </edge>
    <edge id=":102708202_18" function="internal">
        <lane id=":102708202_18_0" index="0" disallow="tram rail_urban rail rail_electric ship" speed="27.78" length="6.73" shape="2141.85,8165.44 2141.66,8163.28 2140.97,8162.27 2139.78,8162.43 2138.10,8163.74"/>
    </edge>
    <edge id=":102708202_19" function="internal">
        <lane id=":102708202_19_0" index="0" disallow="tram rail_urban rail rail_electric ship" speed="27.78" length="38.80" shape="2141.85,8165.44 2142.67,8154.52 2144.17,8144.36 2145.64,8135.14 2146.33,8127.02"/>
        <lane id=":102708202_19_1" index="1" disallow="tram rail_urban rail rail_electric ship" speed="27.78" length="38.80" shape="2145.15,8165.66 2145.97,8154.70 2147.47,8144.48 2148.94,8135.19 2149.63,8127.05"/>
    </edge>
    <edge id=":102708202_21" function="internal">
        <lane id=":102708202_21_0" index="0" disallow="tram rail_urban rail rail_electric ship" speed="27.78" length="39.47" shape="2145.15,8165.66 2146.57,8154.52 2149.95,8144.13 2154.61,8135.25 2159.90,8128.63"/>
        <lane id=":102708202_21_1" index="1" disallow="tram rail_urban rail rail_electric ship" speed="27.78" length="39.47" shape="2148.45,8165.87 2149.71,8155.08 2152.74,8145.43 2157.05,8137.29 2162.18,8131.02"/>
    </edge>
    <edge id=":102708202_23" function="internal">
        <lane id=":102708202_23_0" index="0" disallow="tram rail_urban rail rail_electric ship" speed="27.78" length="38.30" shape="2148.45,8165.87 2149.71,8155.08 2152.73,8145.43 2157.04,8137.29 2162.17,8131.01"/>
    </edge>
    <edge id=":102708202_24" function="internal">
        <lane id=":102708202_24_0" index="0" disallow="tram rail_urban rail rail_electric ship" speed="27.78" length="38.30" shape="2148.45,8165.87 2149.71,8155.08 2152.74,8145.43 2157.05,8137.29 2162.17,8131.01"/>
    </edge>
    <edge id=":102708202_25" function="internal">
        <lane id=":102708202_25_0" index="0" disallow="tram rail_urban rail rail_electric ship" speed="27.78" length="2.41" shape="2148.45,8165.87 2149.35,8164.69 2150.20,8164.33"/>
    </edge>
    <edge id=":102708202_43" function="internal">
        <lane id=":102708202_43_0" index="0" speed="27.78" length="2.41" shape="2150.20,8164.33 2151.00,8164.80 2151.74,8166.09"/>
    </edge>
    <edge id=":102708202_26" function="internal">
        <lane id=":102708202_26_0" index="0" disallow="tram rail_urban rail rail_electric ship" speed="27.78" length="34.61" shape="2164.33,8133.27 2161.41,8138.51 2158.44,8147.36 2156.09,8157.42 2155.04,8166.30"/>
    </edge>
    <edge id=":102708202_27" function="internal">
        <lane id=":102708202_27_0" index="0" disallow="tram rail_urban rail rail_electric ship" speed="27.78" length="40.22" shape="2164.33,8133.27 2159.74,8138.53 2152.56,8147.20 2144.71,8156.53 2138.10,8163.74"/>
    </edge>
    <edge id=":102708202_28" function="internal">
        <lane id=":102708202_28_0" index="0" disallow="tram rail_urban rail rail_electric ship" speed="27.78" length="13.29" shape="2164.33,8133.27 2157.83,8138.42 2153.22,8139.10 2153.02,8138.83"/>
    </edge>
    <edge id=":102708202_29" function="internal">
        <lane id=":102708202_29_0" index="0" disallow="tram rail_urban rail rail_electric ship" speed="27.78" length="3.11" shape="2164.33,8133.27 2162.18,8131.02"/>
    </edge>
    <edge id=":102708202_30" function="internal">
        <lane id=":102708202_30_0" index="0" disallow="tram rail_urban rail rail_electric ship" speed="27.78" length="2.28" shape="2164.33,8133.27 2162.94,8133.51 2162.12,8133.22"/>
    </edge>
    <edge id=":102708202_31" function="internal">
        <lane id=":102708202_31_0" index="0" disallow="tram rail_urban rail rail_electric ship" speed="27.78" length="3.12" shape="2164.33,8133.27 2162.17,8131.01"/>
    </edge>
    <edge id=":102708202_44" function="internal">
        <lane id=":102708202_44_0" index="0" speed="27.78" length="12.64" shape="2153.02,8138.83 2150.48,8135.31 2149.63,8127.05"/>
    </edge>
    <edge id=":102708202_45" function="internal">
        <lane id=":102708202_45_0" index="0" speed="27.78" length="2.28" shape="2162.12,8133.22 2161.86,8132.38 2162.17,8131.01"/>
    </edge>
    <edge id=":102708202_32" function="internal">
        <lane id=":102708202_32_0" index="0" disallow="tram rail_urban rail rail_electric ship" speed="27.78" length="33.32" shape="2166.73,8135.79 2161.91,8142.09 2158.28,8149.91 2155.95,8158.30 2155.04,8166.30"/>
    </edge>
    <edge id=":102708202_33" function="internal">
        <lane id=":102708202_33_0" index="0" disallow="tram rail_urban rail rail_electric ship" speed="27.78" length="40.17" shape="2166.73,8135.79 2159.87,8141.74 2151.25,8148.58 2142.63,8155.41 2135.79,8161.39"/>
    </edge>
    <edge id=":102708202_34" function="internal">
        <lane id=":102708202_34_0" index="0" disallow="tram rail_urban rail rail_electric ship" speed="27.78" length="30.87" shape="2166.73,8135.79 2157.71,8142.77 2151.31,8143.63 2147.51,8138.38 2146.33,8127.02"/>
        <lane id=":102708202_34_1" index="1" disallow="tram rail_urban rail rail_electric ship" speed="27.78" length="30.87" shape="2164.45,8133.40 2157.90,8138.47 2153.25,8139.10 2150.49,8135.30 2149.63,8127.05"/>
    </edge>
    <edge id=":102708202_36" function="internal">
        <lane id=":102708202_36_0" index="0" disallow="tram rail_urban rail rail_electric ship" speed="27.78" length="3.29" shape="2164.45,8133.40 2162.18,8131.02"/>
    </edge>
    <edge id=":102708202_37" function="internal">
        <lane id=":102708202_37_0" index="0" disallow="tram rail_urban rail rail_electric ship" speed="27.78" length="3.31" shape="2164.45,8133.40 2162.17,8131.01"/>
    </edge>
    <edge id=":102708203_0" function="internal">
        <lane id=":102708203_0_0" index="0" disallow="tram rail_urban rail rail_electric ship" speed="27.78" length="28.67" shape="2059.27,8250.49 2051.54,8251.07 2044.64,8252.95 2038.58,8256.15 2033.34,8260.66"/>
    </edge>
    <edge id=":102708203_1" function="internal">
        <lane id=":102708203_1_0" index="0" disallow="tram rail_urban rail rail_electric ship" speed="27.78" length="34.79" shape="2059.27,8250.49 2051.02,8250.41 2041.88,8250.31 2032.73,8250.20 2024.48,8250.09"/>
        <lane id=":102708203_1_1" index="1" disallow="tram rail_urban rail rail_electric ship" speed="27.78" length="34.79" shape="2059.31,8247.19 2051.06,8247.11 2041.91,8247.01 2032.77,8246.90 2024.52,8246.79"/>
    </edge>
    <edge id=":102708203_3" function="internal">
        <lane id=":102708203_3_0" index="0" disallow="tram rail_urban rail rail_electric ship" speed="27.78" length="10.23" shape="2059.31,8247.19 2050.42,8246.15 2049.39,8245.39"/>
    </edge>
    <edge id=":102708203_14" function="internal">
        <lane id=":102708203_14_0" index="0" speed="27.78" length="17.43" shape="2049.39,8245.39 2046.50,8243.25 2047.54,8238.48 2053.56,8231.85"/>
    </edge>
    <edge id=":102708203_4" function="internal">
        <lane id=":102708203_4_0" index="0" disallow="tram rail_urban rail rail_electric ship" speed="27.78" length="6.86" shape="2057.94,8236.79 2056.45,8238.43 2056.19,8239.61 2057.16,8240.33 2059.37,8240.59"/>
    </edge>
    <edge id=":102708203_5" function="internal">
        <lane id=":102708203_5_0" index="0" disallow="tram rail_urban rail rail_electric ship" speed="27.78" length="34.60" shape="2055.75,8234.32 2049.68,8239.86 2043.10,8246.11 2036.64,8252.49 2030.93,8258.40"/>
    </edge>
    <edge id=":102708203_6" function="internal">
        <lane id=":102708203_6_0" index="0" disallow="tram rail_urban rail rail_electric ship" speed="27.78" length="34.20" shape="2055.75,8234.32 2049.13,8239.09 2041.09,8243.10 2032.57,8245.83 2024.52,8246.79"/>
    </edge>
    <edge id=":102708203_7" function="internal">
        <lane id=":102708203_7_0" index="0" disallow="tram rail_urban rail rail_electric ship" speed="27.78" length="29.49" shape="2024.61,8240.19 2031.96,8239.50 2038.94,8237.33 2045.44,8233.90 2051.37,8229.39"/>
    </edge>
    <edge id=":102708203_8" function="internal">
        <lane id=":102708203_8_0" index="0" disallow="tram rail_urban rail rail_electric ship" speed="27.78" length="34.77" shape="2024.61,8240.19 2032.86,8240.30 2041.99,8240.41 2051.13,8240.51 2059.37,8240.59"/>
        <lane id=":102708203_8_1" index="1" disallow="tram rail_urban rail rail_electric ship" speed="27.78" length="34.77" shape="2024.57,8243.49 2032.81,8243.60 2041.95,8243.71 2051.09,8243.81 2059.34,8243.89"/>
    </edge>
    <edge id=":102708203_10" function="internal">
        <lane id=":102708203_10_0" index="0" disallow="tram rail_urban rail rail_electric ship" speed="27.78" length="9.26" shape="2024.57,8243.49 2032.48,8244.52 2033.50,8245.31"/>
    </edge>
    <edge id=":102708203_15" function="internal">
        <lane id=":102708203_15_0" index="0" speed="27.78" length="16.00" shape="2033.50,8245.31 2036.17,8247.35 2035.66,8251.98 2030.93,8258.40"/>
    </edge>
    <edge id=":102708203_11" function="internal">
        <lane id=":102708203_11_0" index="0" disallow="tram rail_urban rail rail_electric ship" speed="27.78" length="6.45" shape="2026.10,8253.90 2027.31,8252.26 2027.44,8251.08 2026.50,8250.36 2024.48,8250.09"/>
    </edge>
    <edge id=":102708203_12" function="internal">
        <lane id=":102708203_12_0" index="0" disallow="tram rail_urban rail rail_electric ship" speed="27.78" length="34.90" shape="2028.52,8256.15 2034.26,8250.21 2040.79,8243.75 2047.45,8237.43 2053.56,8231.85"/>
    </edge>
    <edge id=":102708203_13" function="internal">