<?xml version="1.0" encoding="UTF-8"?>

<!-- generated on Sex  1 Fev 15:20:41 2019 by Netedit Version 0.25.0
<?xml version="1.0" encoding="UTF-8"?>

<configuration xmlns:xsi="http://www.w3.org/2001/XMLSchema-instance" xsi:noNamespaceSchemaLocation="http://sumo.dlr.de/xsd/netedit.exeConfiguration.xsd">

    <input>
        <sumo-net-file value="/Users/AllanMSouza/Dropbox/PhD/TMS%20Implementation/TITS_SI/codes/Proposal/scenario/Chicago/sim.net.xml"/>
    </input>

    <output>
        <output-file value="/Users/AllanMSouza/Dropbox/PhD/TMS%20Implementation/TITS_SI/codes/Proposal/scenario/Chicago/sim.net.xml"/>
        <plain-output-prefix value="/Users/AllanMSouza/Dropbox/PhD/TMS%20Implementation/TITS_SI/codes/Proposal/scenario/Chicago/sim"/>
    </output>

    <processing>
        <no-turnarounds value="true"/>
        <offset.disable-normalization value="true"/>
        <lefthand value="false"/>
        <junctions.corner-detail value="0"/>
    </processing>

</configuration>
-->

<edges version="0.25" xmlns:xsi="http://www.w3.org/2001/XMLSchema-instance" xsi:noNamespaceSchemaLocation="http://sumo.dlr.de/xsd/edges_file.xsd">
    <edge id="-106783558" from="27440482" to="269446280" priority="7" type="highway.secondary" numLanes="2" speed="27.78" disallow="tram rail_urban rail rail_electric ship"/>
    <edge id="-116025901#0" from="1309410893" to="1309410892" priority="7" type="highway.secondary" numLanes="2" speed="27.78" disallow="tram rail_urban rail rail_electric ship"/>
    <edge id="-116025901#3" from="1309410887" to="1309410893" priority="7" type="highway.secondary" numLanes="2" speed="27.78" shape="2612.17,3667.76 2556.68,3667.26 2536.45,3666.98 2486.21,3667.76" disallow="tram rail_urban rail rail_electric ship"/>
    <edge id="-116025901#6" from="1309410902" to="1309410887" priority="7" type="highway.secondary" numLanes="2" speed="27.78" disallow="tram rail_urban rail rail_electric ship"/>
    <edge id="-116025906" from="1655457007" to="1309410902" priority="7" type="highway.secondary" numLanes="2" speed="27.78" shape="2736.39,3402.48 2739.37,3460.12 2738.75,3492.12 2738.65,3497.49 2737.38,3560.82 2736.84,3587.75 2735.32,3669.17" disallow="tram rail_urban rail rail_electric ship"/>
    <edge id="-117576369" from="2123487246" to="5906917261" priority="7" type="highway.secondary" numLanes="1" speed="27.78" shape="2235.44,2685.82 2234.62,2755.65 2233.37,2839.62 2224.99,3380.42" disallow="tram rail_urban rail rail_electric ship"/>
    <edge id="-134319745#0" from="28289974" to="28289318" priority="7" type="highway.secondary" numLanes="2" speed="27.78" shape="3451.84,4736.15 3449.06,4887.30 3447.94,4947.73 3446.61,5020.19" disallow="tram rail_urban rail rail_electric ship"/>
    <edge id="-143925554" from="35313346" to="257957640" priority="7" type="highway.secondary" numLanes="2" speed="27.78" shape="2186.42,6055.20 2797.77,6080.94 2991.60,6086.15 3004.12,6086.35 3067.07,6087.39" disallow="tram rail_urban rail rail_electric ship"/>
    <edge id="-143930066" from="347265980" to="537526638" priority="7" type="highway.secondary" numLanes="2" speed="27.78" shape="2478.03,2322.46 2553.52,2322.93 2594.21,2323.19 2637.10,2323.58 2695.67,2324.03 2797.98,2327.81" disallow="tram rail_urban rail rail_electric ship"/>
    <edge id="-145826633" from="258019304" to="349820645" priority="9" type="highway.primary" numLanes="2" speed="27.78" shape="4131.94,1779.44 4131.55,1745.82 4132.47,1742.52 4133.48,1624.60 4133.67,1603.42 4133.77,1591.13 4134.57,1527.32 4135.01,1492.60 4135.66,1440.29 4135.87,1423.66 4139.75,1193.97" disallow="tram rail_urban rail rail_electric ship"/>
    <edge id="-145834816#1" from="261251057" to="6042833876" priority="7" type="highway.secondary" numLanes="2" speed="27.78" disallow="tram rail_urban rail rail_electric ship"/>
    <edge id="-146010267" from="256180881" to="256181100" priority="7" type="highway.secondary" numLanes="2" speed="27.78" shape="863.99,293.90 1011.33,132.86 1193.83,141.72 1243.08,142.22 1372.83,143.51 1445.50,144.05 1473.35,144.61 1494.81,144.95 1547.13,145.75 2255.08,152.92" disallow="tram rail_urban rail rail_electric ship"/>
    <edge id="-163148287" from="1655457008" to="1655457007" priority="7" type="highway.secondary" numLanes="2" speed="27.78" disallow="tram rail_urban rail rail_electric ship"/>
    <edge id="-185742600" from="102708202" to="102708200" priority="7" type="highway.secondary" numLanes="2" speed="27.78" shape="2151.14,8144.04 2657.49,7651.59 2660.49,7648.68 2701.84,7607.81 2739.97,7570.12 2743.58,7566.56 2773.45,7537.19 2797.22,7514.23 2867.81,7450.14" disallow="tram rail_urban rail rail_electric ship"/>
    <edge id="-201255105" from="5891694376" to="369880975" priority="7" type="highway.secondary" numLanes="2" speed="27.78" disallow="tram rail_urban rail rail_electric ship"/>
    <edge id="-202375198" from="5906917261" to="1324298357" priority="7" type="highway.secondary" numLanes="2" speed="27.78" disallow="tram rail_urban rail rail_electric ship"/>
    <edge id="-221317663" from="4337248984" to="1764458381" priority="7" type="highway.secondary" numLanes="2" speed="27.78" shape="1308.43,7434.01 1246.03,7502.37 1239.02,7513.48 1232.95,7523.42 1226.59,7535.44 1222.45,7545.77 1220.80,7550.40 1217.87,7558.67 1214.63,7570.99 1212.07,7585.20 1211.02,7592.61 1210.17,7598.61 1207.77,7618.59 1205.28,7637.60 1199.04,7685.40 1193.89,7730.21 1184.58,7811.36 1180.15,7829.80 1174.16,7844.26 1134.84,7929.38 995.69,8241.67" disallow="tram rail_urban rail rail_electric ship"/>
    <edge id="-223510912#0" from="261296277" to="35313346" priority="7" type="highway.secondary" numLanes="2" speed="27.78" shape="1249.00,6047.57 1285.27,6047.78 1333.10,6048.06 1366.19,6048.25 1378.06,6048.31 1389.32,6048.38 1425.90,6048.59 1461.61,6048.80 1500.62,6049.02 1510.03,6049.07 1521.04,6049.14 1561.21,6049.37 1606.16,6049.62 1654.31,6049.90 1703.70,6050.19 1752.81,6050.47 1800.04,6050.75 1847.84,6051.03 2186.42,6055.20" disallow="tram rail_urban rail rail_electric ship"/>
    <edge id="-223510912#1" from="418158485" to="261296277" priority="7" type="highway.secondary" numLanes="2" speed="27.78" disallow="tram rail_urban rail rail_electric ship"/>
    <edge id="-223510912#2" from="5891694345" to="418158485" priority="7" type="highway.secondary" numLanes="2" speed="27.78" shape="572.28,6039.82 1096.04,6046.71 1203.04,6047.31 1232.10,6047.48" disallow="tram rail_urban rail rail_electric ship"/>
    <edge id="-229737913" from="253960191" to="253960280" priority="7" type="highway.secondary" numLanes="2" speed="27.78" shape="4277.21,173.87 4329.37,174.19 4355.32,174.35 4383.39,174.52 4392.31,174.61 4436.27,175.06 4462.19,175.32 4479.21,175.32 4494.76,175.53 4528.27,175.97 4645.51,177.23" disallow="tram rail_urban rail rail_electric ship"/>
    <edge id="-230492795#1" from="33718418" to="33718417" priority="9" type="highway.primary" numLanes="3" speed="27.78" shape="4407.34,4891.81 4408.23,4768.66 4409.41,4666.58 4409.48,4660.25 4412.88,4610.69" disallow="tram rail_urban rail rail_electric ship"/>
    <edge id="-231237737#1" from="33718417" to="740237231" priority="9" type="highway.primary" numLanes="3" speed="27.78" disallow="tram rail_urban rail rail_electric ship"/>
    <edge id="-231305591" from="259576127" to="32873350" priority="7" type="highway.secondary" numLanes="2" speed="27.78" shape="2315.11,10900.09 2337.08,10862.45 2401.38,10753.93 2448.25,10671.74" disallow="tram rail_urban rail rail_electric ship"/>
    <edge id="-231305597#1" from="369879132" to="48990563" priority="9" type="highway.primary" numLanes="2" speed="27.78" shape="82.25,8220.05 174.78,8221.04 234.69,8221.65 292.95,8222.82 301.01,8222.89 528.76,8228.54" disallow="tram rail_urban rail rail_electric ship"/>
    <edge id="-231307557" from="5891694372" to="5891694373" priority="7" type="highway.secondary" numLanes="3" speed="27.78" disallow="tram rail_urban rail rail_electric ship"/>
    <edge id="-231365447" from="261200011" to="258031253" priority="7" type="highway.secondary" numLanes="2" speed="27.78" shape="2237.26,2580.74 2237.37,2567.81 2238.01,2531.25 2238.47,2496.62 2239.08,2455.89 2241.13,2318.29" disallow="tram rail_urban rail rail_electric ship"/>
    <edge id="-231603332" from="26817984" to="26817974" priority="7" type="highway.secondary" numLanes="2" speed="27.78" shape="1308.52,10652.23 1815.30,10157.58 1866.20,10107.27 1914.87,10059.18 1975.56,10000.29 2048.67,9929.13 2057.09,9920.93 2129.29,9866.22" disallow="tram rail_urban rail rail_electric ship"/>
    <edge id="-231617187" from="5891694375" to="5891694376" priority="7" type="highway.secondary" numLanes="2" speed="27.78" shape="553.88,7487.12 547.54,7492.26 541.45,7497.49" disallow="tram rail_urban rail rail_electric ship"/>
    <edge id="-23188286" from="26817976" to="32873350" priority="7" type="highway.secondary" numLanes="2" speed="27.78" shape="2815.71,9869.31 2749.91,10007.02 2740.21,10029.09 2724.01,10066.02 2702.88,10114.16 2701.10,10118.24 2665.66,10199.00 2448.25,10671.74" disallow="tram rail_urban rail rail_electric ship"/>
    <edge id="-232465344" from="5891205771" to="5493385343" priority="7" type="highway.secondary" numLanes="2" speed="27.78" shape="502.73,9115.59 472.05,9145.14 71.73,9520.98" disallow="tram rail_urban rail rail_electric ship"/>
    <edge id="-23646718#1" from="256613320" to="258032427" priority="7" type="highway.secondary" numLanes="2" speed="27.78" shape="2209.93,4583.78 2207.70,4627.30 2207.57,4634.52 2207.21,4654.78 2206.26,4726.56" disallow="tram rail_urban rail rail_electric ship"/>
    <edge id="-23745828" from="33718424" to="369890932" priority="9" type="highway.primary" numLanes="2" speed="27.78" disallow="tram rail_urban rail rail_electric ship"/>
    <edge id="-23761413" from="35313383" to="1655457009" priority="7" type="highway.secondary" numLanes="2" speed="27.78" shape="2880.26,2327.57 2875.68,2588.85 2872.82,2760.01 2863.65,3384.64" disallow="tram rail_urban rail rail_electric ship"/>
    <edge id="-23761426" from="257432114" to="35313383" priority="7" type="highway.secondary" numLanes="2" speed="27.78" disallow="tram rail_urban rail rail_electric ship"/>
    <edge id="-23887717" from="27446708" to="27446720" priority="9" type="highway.primary" numLanes="2" speed="27.78" shape="3828.11,4740.48 3827.46,4809.85 3823.02,5025.70" disallow="tram rail_urban rail rail_electric ship"/>
    <edge id="-23888140" from="33718417" to="27440218" priority="9" type="highway.primary" numLanes="2" speed="27.78" disallow="tram rail_urban rail rail_electric ship"/>
    <edge id="-23989688" from="48991153" to="4965334115" priority="7" type="highway.secondary" numLanes="2" speed="27.78" shape="422.93,9837.34 382.60,9837.37 351.06,9836.89 267.76,9835.60 258.17,9835.45 82.57,9833.27" disallow="tram rail_urban rail rail_electric ship"/>
    <edge id="-24071819" from="33718768" to="258292945" priority="9" type="highway.primary" numLanes="2" speed="27.78" shape="3704.54,4196.31 3820.63,4194.95 3834.45,4195.15" disallow="tram rail_urban rail rail_electric ship"/>
    <edge id="-24073925" from="4403665401" to="261132804" priority="9" type="highway.primary" numLanes="2" speed="27.78" disallow="tram rail_urban rail rail_electric ship"/>
    <edge id="-24088872#0" from="261210990" to="261174717" priority="7" type="highway.secondary" numLanes="2" speed="27.78" shape="19.89,1440.72 422.39,1643.93 461.18,1663.42 542.46,1704.25 621.98,1755.09" disallow="tram rail_urban rail rail_electric ship"/>
    <edge id="-24105976" from="261282591" to="261132804" priority="9" type="highway.primary" numLanes="2" speed="27.78" shape="728.20,5087.80 690.19,5040.69 649.16,4987.91" disallow="tram rail_urban rail rail_electric ship"/>
    <edge id="-24203326#0" from="263984850" to="102723064" priority="7" type="highway.secondary" numLanes="2" speed="27.78" shape="3047.04,7450.39 3050.58,6995.03 3052.41,6909.40 3054.26,6822.79 3055.93,6744.55 3056.13,6735.26 3056.29,6727.85 3057.02,6693.08 3056.15,6642.81" disallow="tram rail_urban rail rail_electric ship"/>
    <edge id="-24203446" from="102713553" to="102713556" priority="7" type="highway.secondary" numLanes="2" speed="27.78" shape="3772.11,7460.95 3808.17,7460.00 3826.47,7460.31 3912.98,7461.80 3919.15,7461.91 3924.71,7462.00 3961.75,7462.64 4005.53,7463.40 4014.55,7463.56 4020.07,7463.65 4060.84,7464.35 4073.01,7464.56" disallow="tram rail_urban rail rail_electric ship"/>
    <edge id="-24215244#0" from="261185887" to="465863369" priority="7" type="highway.secondary" numLanes="2" speed="27.78" shape="3607.56,2038.92 3607.20,2075.19 3604.57,2201.88 3602.06,2333.15" disallow="tram rail_urban rail rail_electric ship"/>
    <edge id="-24215244#1" from="262186385" to="261185887" priority="7" type="highway.secondary" numLanes="2" speed="27.78" disallow="tram rail_urban rail rail_electric ship"/>
    <edge id="-24229909" from="344250624" to="365026544" priority="7" type="highway.secondary" numLanes="2" speed="27.78" disallow="tram rail_urban rail rail_electric ship"/>
    <edge id="-24231504" from="2503425684" to="102713547" priority="7" type="highway.secondary" numLanes="2" speed="27.78" disallow="tram rail_urban rail rail_electric ship"/>
    <edge id="-24372007" from="4337248984" to="102713547" priority="7" type="highway.secondary" numLanes="2" speed="27.78" shape="1308.43,7434.01 1661.98,7431.48 1666.41,7431.52 1789.96,7432.34 1811.14,7432.80 1920.89,7435.20 2159.11,7437.70" disallow="tram rail_urban rail rail_electric ship"/>
    <edge id="-244501317" from="5891205778" to="102708203" priority="7" type="highway.secondary" numLanes="2" speed="27.78" shape="522.39,9736.04 1884.41,8403.80 1942.99,8346.36 1985.28,8304.88 2040.85,8245.36" disallow="tram rail_urban rail rail_electric ship"/>
    <edge id="-244501322" from="4332745689" to="48991153" priority="7" type="highway.secondary" numLanes="2" speed="27.78" disallow="tram rail_urban rail rail_electric ship"/>
    <edge id="-24952069" from="264429103" to="258964179" priority="9" type="highway.primary" numLanes="2" speed="27.78" shape="3981.81,8077.82 3967.71,8257.26 3916.55,8401.20" disallow="tram rail_urban rail rail_electric ship"/>
    <edge id="-24952123" from="27440582" to="27440577" priority="7" type="highway.secondary" numLanes="1" speed="27.78" shape="4909.72,6285.23 4901.10,6300.73 4726.66,6663.35" disallow="tram rail_urban rail rail_electric ship"/>
    <edge id="-253737737" from="465863369" to="704990298" priority="7" type="highway.secondary" numLanes="2" speed="27.78" shape="3602.06,2333.15 3643.80,2334.33 3665.75,2334.68 3726.99,2335.67 3774.64,2336.43 3846.42,2339.26" disallow="tram rail_urban rail rail_electric ship"/>
    <edge id="-253740823" from="102686390" to="26817974" priority="7" type="highway.secondary" numLanes="2" speed="27.78" shape="2107.45,10666.54 2107.26,10635.32 2107.48,10622.86 2108.98,10537.44 2109.06,10528.36 2109.11,10523.49 2129.29,9866.22" disallow="tram rail_urban rail rail_electric ship"/>
    <edge id="-255412271#1" from="27440577" to="257164245" priority="7" type="highway.secondary" numLanes="2" speed="27.78" shape="4726.66,6663.35 4635.33,6661.79 4452.28,6658.68" disallow="tram rail_urban rail rail_electric ship"/>
    <edge id="-255563525" from="28290256" to="28290265" priority="9" type="highway.primary" numLanes="3" speed="27.78" shape="3823.70,5160.53 3818.92,5247.57 3818.76,5284.61 3818.70,5298.42" disallow="tram rail_urban rail rail_electric ship"/>
    <edge id="-26231830" from="708334408" to="35313346" priority="7" type="highway.secondary" numLanes="2" speed="27.78" disallow="tram rail_urban rail rail_electric ship"/>
    <edge id="-27804884" from="261182550" to="537526638" priority="7" type="highway.secondary" numLanes="2" speed="27.78" shape="2481.85,2137.67 2518.79,2159.81 2558.05,2181.73 2573.97,2190.71 2598.14,2205.18 2638.74,2229.47 2736.91,2289.06 2752.47,2298.51 2753.73,2299.33 2797.98,2327.81" disallow="tram rail_urban rail rail_electric ship"/>
    <edge id="-285960969" from="601267166" to="739187887" priority="7" type="highway.secondary" numLanes="2" speed="27.78" shape="2172.50,6634.29 2011.30,6630.73 1928.43,6629.20 1896.91,6628.62 1841.85,6627.60 1776.53,6626.40 1695.86,6624.92 1618.67,6623.50" disallow="tram rail_urban rail rail_electric ship"/>
    <edge id="-288594593" from="4333091867" to="102708202" priority="7" type="highway.secondary" numLanes="3" speed="27.78" shape="2149.33,8199.11 2150.09,8166.23 2150.27,8157.33 2151.14,8144.04" disallow="tram rail_urban rail rail_electric ship"/>
    <edge id="-293871266" from="2291929257" to="250755798" priority="7" type="highway.secondary" numLanes="2" speed="27.78" shape="3425.67,7454.99 3476.36,7455.27 3541.15,7455.53" disallow="tram rail_urban rail rail_electric ship"/>
    <edge id="-294565004" from="258964179" to="258964147" priority="9" type="highway.primary" numLanes="2" speed="27.78" disallow="tram rail_urban rail rail_electric ship"/>
    <edge id="-294565005#1" from="271147928" to="264429103" priority="9" type="highway.primary" numLanes="2" speed="27.78" shape="4012.81,7889.81 4011.22,7898.91 3987.93,8032.34 3981.81,8077.82" disallow="tram rail_urban rail rail_electric ship"/>
    <edge id="-294565005#2" from="258964573" to="271147928" priority="9" type="highway.primary" numLanes="2" speed="27.78" shape="4050.61,7669.68 4048.31,7682.91 4032.46,7774.10 4030.30,7786.79 4012.81,7889.81" disallow="tram rail_urban rail rail_electric ship"/>
    <edge id="-294565005#3" from="102713556" to="258964573" priority="9" type="highway.primary" numLanes="2" speed="27.78" shape="4073.01,7464.56 4071.93,7473.34 4071.16,7480.21 4070.67,7484.77 4069.80,7493.08 4067.14,7564.58 4066.54,7572.45 4064.83,7594.44 4050.61,7669.68" disallow="tram rail_urban rail rail_electric ship"/>
    <edge id="-294565005#4" from="258964576" to="102713556" priority="9" type="highway.primary" numLanes="2" speed="27.78" shape="4115.32,7288.44 4112.31,7301.19 4093.73,7379.93 4091.29,7389.91 4073.01,7464.56" disallow="tram rail_urban rail rail_electric ship"/>
    <edge id="-294712584" from="4322796838" to="261121565" priority="9" type="highway.primary" numLanes="2" speed="27.78" shape="3216.70,4189.37 3535.73,4192.44 3579.43,4192.76" disallow="tram rail_urban rail rail_electric ship"/>
    <edge id="-294737982" from="258895336" to="347265980" priority="7" type="highway.secondary" numLanes="2" speed="27.78" disallow="tram rail_urban rail rail_electric ship"/>
    <edge id="-31232996" from="256181097" to="6042835989" priority="7" type="highway.secondary" numLanes="2" speed="27.78" shape="2247.12,1170.83 2242.54,1275.62 2243.87,1307.91 2248.50,1770.28" disallow="tram rail_urban rail rail_electric ship"/>
    <edge id="-312901458" from="256591534" to="4322796838" priority="7" type="highway.secondary" numLanes="2" speed="27.78" shape="2848.94,4186.99 3184.12,4189.06 3216.70,4189.37" disallow="tram rail_urban rail rail_electric ship"/>
    <edge id="-313471979" from="102713553" to="250755798" priority="7" type="highway.secondary" numLanes="2" speed="27.78" shape="3772.11,7460.95 3599.45,7456.43 3541.15,7455.53" disallow="tram rail_urban rail rail_electric ship"/>
    <edge id="-313500943" from="35313343" to="258956336" priority="7" type="highway.secondary" numLanes="2" speed="27.78" shape="2201.01,5010.08 2198.49,5139.36 2200.85,5161.55" disallow="tram rail_urban rail rail_electric ship"/>
    <edge id="-315048942" from="1764458381" to="1888714372" priority="9" type="highway.primary" numLanes="2" speed="27.78" shape="995.69,8241.67 676.47,8228.33 644.36,8227.88 636.74,8227.78 589.56,8227.11 548.71,8224.70" disallow="tram rail_urban rail rail_electric ship"/>
    <edge id="-316762108#0" from="102723064" to="102723065" priority="7" type="highway.secondary" numLanes="2" speed="27.78" shape="3056.15,6642.81 3210.19,6644.79 3257.56,6645.35 3421.87,6647.40" disallow="tram rail_urban rail rail_electric ship"/>
    <edge id="-318749976" from="5891694373" to="346050145" priority="7" type="highway.secondary" numLanes="2" speed="27.78" shape="542.69,7417.62 429.96,7414.10 68.10,7410.42" disallow="tram rail_urban rail rail_electric ship"/>
    <edge id="-319345471" from="27440215" to="28289974" priority="7" type="highway.secondary" numLanes="2" speed="27.78" shape="3452.41,4595.61 3451.94,4664.20 3451.84,4736.15" disallow="tram rail_urban rail rail_electric ship"/>
    <edge id="-319510094#0" from="27440577" to="27440568" priority="7" type="highway.secondary" numLanes="2" speed="27.78" shape="4726.66,6663.35 4590.23,6936.89 4547.15,7026.08 4516.25,7090.93 4510.32,7102.27 4506.80,7107.62 4500.73,7113.42" disallow="tram rail_urban rail rail_electric ship"/>
    <edge id="-320504230" from="5912726239" to="704695477" priority="7" type="highway.secondary" numLanes="2" speed="27.78" disallow="tram rail_urban rail rail_electric ship"/>
    <edge id="-32122521" from="261132811" to="736014657" priority="9" type="highway.primary" numLanes="2" speed="27.78" shape="262.22,4557.06 330.65,4635.48 384.54,4698.34" disallow="tram rail_urban rail rail_electric ship"/>
    <edge id="-33262455#1" from="257957640" to="29412132" priority="7" type="highway.secondary" numLanes="2" speed="27.78" disallow="tram rail_urban rail rail_electric ship"/>
    <edge id="-33262501" from="739187881" to="102723053" priority="7" type="highway.secondary" numLanes="2" speed="27.78" shape="1581.14,6591.52 1562.47,6607.63 1560.92,6608.96 1550.19,6622.23" disallow="tram rail_urban rail rail_electric ship"/>
    <edge id="-35333843" from="414178247" to="414178246" priority="7" type="highway.secondary" numLanes="2" speed="27.78" disallow="tram rail_urban rail rail_electric ship"/>
    <edge id="-366047971#2" from="5891205768" to="5891205769" priority="7" type="highway.secondary" numLanes="2" speed="27.78" disallow="tram rail_urban rail rail_electric ship"/>
    <edge id="-366047971#3" from="102705584" to="5891205768" priority="7" type="highway.secondary" numLanes="2" speed="27.78" disallow="tram rail_urban rail rail_electric ship"/>
    <edge id="-36898113" from="256592106" to="5913552520" priority="7" type="highway.secondary" numLanes="2" speed="27.78" shape="2859.66,3670.41 2862.20,3493.96 2862.49,3470.34 2862.64,3457.72 2862.89,3402.20" disallow="tram rail_urban rail rail_electric ship"/>
    <edge id="-372659482" from="263351673" to="5891205769" priority="7" type="highway.secondary" numLanes="2" speed="27.78" shape="132.61,9029.93 253.34,9031.57 512.49,9033.34" disallow="tram rail_urban rail rail_electric ship"/>
    <edge id="-373852569#1" from="3921106500" to="27440253" priority="9" type="highway.primary" numLanes="2" speed="27.78" shape="3062.81,4733.75 3063.11,4602.41 3058.32,4591.81" disallow="tram rail_urban rail rail_electric ship"/>
    <edge id="-400090624" from="26817974" to="2480840763" priority="7" type="highway.secondary" numLanes="2" speed="27.78" shape="2129.29,9866.22 673.69,9839.59 628.43,9839.18 609.91,9839.01 523.01,9841.07" disallow="tram rail_urban rail rail_electric ship"/>
    <edge id="-401896408" from="26817974" to="35313351" priority="7" type="highway.secondary" numLanes="2" speed="27.78" shape="2129.29,9866.22 2123.11,9766.91 2124.54,9674.30 2124.67,9666.23 2124.87,9658.39 2125.04,9645.35 2147.22,8244.92" disallow="tram rail_urban rail rail_electric ship"/>
    <edge id="-406711245" from="102723053" to="5891694337" priority="7" type="highway.secondary" numLanes="2" speed="27.78" shape="1550.19,6622.23 1249.64,6618.54 1232.97,6618.31 1207.93,6617.98 1167.77,6617.75 1128.82,6616.82 1082.78,6615.87 1057.27,6615.33 1048.81,6615.22 1038.47,6615.12 566.07,6609.04" disallow="tram rail_urban rail rail_electric ship"/>
    <edge id="-427960706" from="102680965" to="2291929261" priority="7" type="highway.secondary" numLanes="2" speed="27.78" disallow="tram rail_urban rail rail_electric ship"/>
    <edge id="-42942581" from="256181097" to="256180881" priority="9" type="highway.primary" numLanes="2" speed="27.78" shape="2247.12,1170.83 1239.42,528.21 1235.55,525.81 1199.63,503.60 1177.93,490.17 1163.61,481.31 1130.55,460.62 1061.90,417.63 863.99,293.90" disallow="tram rail_urban rail rail_electric ship"/>
    <edge id="-42942582" from="256180881" to="5893137255" priority="9" type="highway.primary" numLanes="2" speed="27.78" disallow="tram rail_urban rail rail_electric ship"/>
    <edge id="-432375796#0" from="4533253081" to="261132804" priority="7" type="highway.secondary" numLanes="2" speed="27.78" shape="593.04,4987.14 608.24,4987.33 649.16,4987.91" disallow="tram rail_urban rail rail_electric ship"/>
    <edge id="-432382566" from="736014594" to="261143294" priority="9" type="highway.primary" numLanes="3" speed="27.78" shape="879.67,5282.84 780.51,5152.89 770.56,5139.81" disallow="tram rail_urban rail rail_electric ship"/>
    <edge id="-433173474" from="4403665402" to="4403665401" priority="9" type="highway.primary" numLanes="2" speed="27.78" disallow="tram rail_urban rail rail_electric ship"/>
    <edge id="-433777235" from="258955481" to="258956336" priority="7" type="highway.secondary" numLanes="2" speed="27.78" shape="2197.10,5304.22 2197.44,5239.83 2197.54,5225.74 2197.69,5207.53 2200.85,5161.55" disallow="tram rail_urban rail rail_electric ship"/>
    <edge id="-433777237" from="258032427" to="35313343" priority="7" type="highway.secondary" numLanes="2" speed="27.78" shape="2206.26,4726.56 2203.61,4852.56 2201.01,5010.08" disallow="tram rail_urban rail rail_electric ship"/>
    <edge id="-433780232" from="1337351534" to="1337351540" priority="7" type="highway.secondary" numLanes="2" speed="27.78" shape="2281.93,4183.00 2471.59,4183.92 2482.92,4183.96" disallow="tram rail_urban rail rail_electric ship"/>
    <edge id="-433780233" from="35313343" to="258020678" priority="7" type="highway.secondary" numLanes="2" speed="27.78" shape="2201.01,5010.08 2381.93,5011.57 2418.53,5010.66 2469.23,5012.62" disallow="tram rail_urban rail rail_electric ship"/>
    <edge id="-433780234" from="1309410902" to="256592106" priority="7" type="highway.secondary" numLanes="2" speed="27.78" shape="2735.32,3669.17 2795.20,3669.77 2859.66,3670.41" disallow="tram rail_urban rail rail_electric ship"/>
    <edge id="-433784887" from="704695457" to="261121565" priority="7" type="highway.secondary" numLanes="2" speed="27.78" disallow="tram rail_urban rail rail_electric ship"/>
    <edge id="-433784890" from="261121565" to="33718768" priority="9" type="highway.primary" numLanes="1" speed="27.78" disallow="tram rail_urban rail rail_electric ship"/>
    <edge id="-434705479" from="388608183" to="388608184" priority="9" type="highway.primary" numLanes="2" speed="27.78" disallow="tram rail_urban rail rail_electric ship"/>
    <edge id="-435329533" from="5893137256" to="705676129" priority="9" type="highway.primary" numLanes="2" speed="27.78" disallow="tram rail_urban rail rail_electric ship"/>
    <edge id="-435329582" from="6046913785" to="261174717" priority="9" type="highway.primary" numLanes="2" speed="27.78" shape="0.00,1744.02 231.53,1746.91 621.98,1755.09" disallow="tram rail_urban rail rail_electric ship"/>
    <edge id="-435331447#0" from="256181100" to="256181097" priority="7" type="highway.secondary" numLanes="2" speed="27.78" shape="2255.08,152.92 2249.82,593.07 2249.36,633.11 2248.54,719.39 2248.20,749.16 2248.06,759.43 2247.93,772.08 2247.56,801.97 2247.38,825.54 2246.90,871.99 2246.81,917.64 2246.63,925.69 2246.08,949.53 2247.12,1170.83" disallow="tram rail_urban rail rail_electric ship"/>
    <edge id="-435332787" from="261202657" to="257432114" priority="7" type="highway.secondary" numLanes="2" speed="27.78" shape="2911.33,1597.56 2911.00,1628.98 2909.79,1706.15 2908.99,1786.22" disallow="tram rail_urban rail rail_electric ship"/>
    <edge id="-435332793" from="345514683" to="258031253" priority="7" type="highway.secondary" numLanes="1" speed="27.78" disallow="tram rail_urban rail rail_electric ship"/>
    <edge id="-435332794" from="6042835990" to="345514683" priority="7" type="highway.secondary" numLanes="2" speed="27.78" shape="2248.33,1780.31 2248.09,1802.28 2247.34,1862.41 2246.64,1919.43 2246.57,1942.37 2248.19,2009.38" disallow="tram rail_urban rail rail_electric ship"/>
    <edge id="-435332802" from="257432114" to="347267733" priority="9" type="highway.primary" numLanes="2" speed="27.78" shape="2908.99,1786.22 2676.21,1780.05 2655.41,1780.07 2645.43,1779.89" disallow="tram rail_urban rail rail_electric ship"/>
    <edge id="-435342290" from="261185887" to="262186019" priority="7" type="highway.secondary" numLanes="2" speed="27.78" disallow="tram rail_urban rail rail_electric ship"/>
    <edge id="-435342295" from="414180821" to="262186385" priority="7" type="highway.secondary" numLanes="2" speed="27.78" disallow="tram rail_urban rail rail_electric ship"/>
    <edge id="-435342297" from="262185171" to="414180402" priority="9" type="highway.primary" numLanes="1" speed="27.78" disallow="tram rail_urban rail rail_electric ship"/>
    <edge id="-435342303" from="414180402" to="262186019" priority="9" type="highway.primary" numLanes="1" speed="27.78" shape="3857.93,1794.00 3856.97,1939.67 3853.18,2195.07" disallow="tram rail_urban rail rail_electric ship"/>
    <edge id="-435350923" from="2480840764" to="48991153" priority="7" type="highway.secondary" numLanes="2" speed="27.78" disallow="tram rail_urban rail rail_electric ship"/>
    <edge id="-435359942" from="2401539919" to="250278943" priority="7" type="highway.secondary" numLanes="1" speed="13.41" shape="194.21,10640.81 289.60,10641.58 298.63,10641.66 307.41,10641.72 393.56,10642.40 400.15,10642.45 406.73,10642.49 449.08,10642.77 494.89,10642.67" disallow="tram rail_urban rail rail_electric ship"/>
    <edge id="-435359943" from="250278943" to="2518161241" priority="7" type="highway.secondary" numLanes="1" speed="13.41" disallow="tram rail_urban rail rail_electric ship"/>